<?xml version="1.0" encoding="UTF-8"?>

<!-- generated on Sat Jun 12 15:44:02 2021 by Eclipse SUMO polyconvert Version 1.7.0
<configuration xmlns:xsi="http://www.w3.org/2001/XMLSchema-instance" xsi:noNamespaceSchemaLocation="http://sumo.dlr.de/xsd/polyconvertConfiguration.xsd">

    <input>
        <net-file value="osm.net.xml"/>
        <osm-files value="osm_bbox.osm.xml"/>
        <osm.keep-full-type value="true"/>
        <type-file value="/usr/local/Cellar/sumo/1.7.0/share/sumo/data/typemap/osmPolyconvert.typ.xml"/>
    </input>

    <output>
        <output-file value="osm.poly.xml"/>
    </output>

    <processing>
        <poi-layer-offset value="5"/>
    </processing>

    <report>
        <verbose value="true"/>
    </report>

</configuration>
-->

<additional xmlns:xsi="http://www.w3.org/2001/XMLSchema-instance" xsi:noNamespaceSchemaLocation="http://sumo.dlr.de/xsd/additional_file.xsd">
    <location netOffset="-659044.72,-3527591.56" convBoundary="-0.00,-0.00,18097.34,31903.72" origBoundary="118.686649,31.871005,118.875600,32.160705" projParameter="+proj=utm +zone=50 +ellps=WGS84 +datum=WGS84 +units=m +no_defs"/>

    <poly id="100944618" type="amenity.parking" color="184,184,179" fill="1" layer="-1.00" shape="8621.916098,18969.540145 8594.593670,18905.546990 8585.778203,18886.749205 8582.386314,18877.610994 8583.011144,18870.058120 8583.637214,18863.004302 8590.393085,18852.535865 8651.176507,18823.271947 8701.952337,18940.094228 8666.779350,18953.122481 8639.732244,18964.277295 8621.916098,18969.540145"/>
    <poly id="100944800" type="amenity.parking" color="184,184,179" fill="1" layer="-1.00" shape="9048.591118,19388.605072 9019.474375,19317.383711 9103.139718,19284.873565 9122.375904,19344.088351 9090.680239,19352.492625 9097.818684,19367.514950 9048.591118,19388.605072"/>
    <poly id="136251249" type="building.yes" color="255,230,230" fill="1" layer="-1.00" shape="8170.273098,18822.580227 8193.439285,18813.633884 8188.100370,18799.939314 8164.924896,18808.874428 8170.273098,18822.580227"/>
    <poly id="136251250" type="building.yes" color="255,230,230" fill="1" layer="-1.00" shape="8161.762469,18841.581331 8145.825344,18808.306090 8149.293789,18806.466651 8145.419684,18797.908452 8160.164059,18791.607405 8162.946606,18797.608180 8170.391993,18794.026371 8171.738118,18797.763480 8198.273872,18786.100011 8206.271479,18804.706558 8218.136366,18800.043974 8215.823865,18793.030649 8228.100272,18788.618800 8230.391531,18795.199284 8237.867788,18792.616097 8241.393839,18802.233229 8296.794119,18782.637789 8299.573455,18789.980399 8161.762469,18841.581331"/>
    <poly id="136251251" type="building.yes" color="255,230,230" fill="1" layer="-1.00" shape="8384.738965,18740.410844 8371.417947,18708.342603 8376.287002,18706.348805 8380.557505,18716.643595 8386.292096,18714.286969 8396.587160,18739.075079 8399.767222,18746.745901 8396.191397,18748.217537 8393.319297,18749.401312 8388.885398,18738.704604 8384.738965,18740.410844"/>
    <poly id="136251252" type="building.yes" color="255,230,230" fill="1" layer="-1.00" shape="8378.526444,18775.318821 8371.571359,18764.569623 8391.294131,18751.929757 8398.258649,18762.679123 8378.526444,18775.318821"/>
    <poly id="136251253" type="leisure.pitch" color="207,245,201" fill="1" layer="-2.00" shape="8302.916948,18789.425357 8283.821125,18747.769708 8366.898020,18712.659873 8369.623655,18718.094203 8365.118893,18720.337959 8370.845452,18723.071339 8375.543129,18728.061203 8378.062873,18732.227934 8379.456514,18735.943674 8380.639412,18741.563373 8380.518764,18747.183842 8377.977370,18752.387505 8374.460743,18758.307068 8369.552723,18763.250072 8302.916948,18789.425357"/>
    <poly id="136251254" type="building.yes" color="255,230,230" fill="1" layer="-1.00" shape="8204.640612,18773.994779 8240.247284,18757.556444 8230.684333,18737.061124 8195.077609,18753.499495 8204.640612,18773.994779"/>
    <poly id="142741649" type="amenity.bank" color="237,199,199" fill="1" layer="-1.00" shape="8965.259010,19152.284792 9003.865590,19149.261644 9003.329550,19140.525219 8996.570618,19141.422946 8994.164519,19103.456535 8962.434972,19105.284498 8965.259010,19152.284792"/>
    <poly id="142741649#1" type="building.yes" color="255,230,230" fill="1" layer="-1.00" shape="8965.259010,19152.284792 9003.865590,19149.261644 9003.329550,19140.525219 8996.570618,19141.422946 8994.164519,19103.456535 8962.434972,19105.284498 8965.259010,19152.284792"/>
    <poly id="142741650" type="amenity.bank" color="237,199,199" fill="1" layer="-1.00" shape="8998.902667,19102.525488 9017.647882,19100.494627 9021.145766,19134.109712 9002.733858,19135.979714 8998.902667,19102.525488"/>
    <poly id="142741650#1" type="building.yes" color="255,230,230" fill="1" layer="-1.00" shape="8998.902667,19102.525488 9017.647882,19100.494627 9021.145766,19134.109712 9002.733858,19135.979714 8998.902667,19102.525488"/>
    <poly id="142741652" type="building.yes" color="255,230,230" fill="1" layer="-1.00" shape="8865.214329,18704.287666 8889.084368,18729.510652 8887.907065,18800.975324 8848.758826,18799.532012 8835.770199,18806.448756 8813.090132,18818.528968 8803.652322,18818.040872 8792.117228,18802.081428 8793.799112,18781.970274 8804.903758,18762.690738 8804.114387,18749.248147 8799.821023,18743.810054 8799.920327,18737.778907 8802.369701,18732.440746 8808.151478,18729.519555 8815.207949,18730.644908 8865.214329,18704.287666"/>
    <poly id="142741652#1" type="shop.department_store" color="237,199,255" fill="1" layer="-1.00" shape="8865.214329,18704.287666 8889.084368,18729.510652 8887.907065,18800.975324 8848.758826,18799.532012 8835.770199,18806.448756 8813.090132,18818.528968 8803.652322,18818.040872 8792.117228,18802.081428 8793.799112,18781.970274 8804.903758,18762.690738 8804.114387,18749.248147 8799.821023,18743.810054 8799.920327,18737.778907 8802.369701,18732.440746 8808.151478,18729.519555 8815.207949,18730.644908 8865.214329,18704.287666"/>
    <poly id="142741653" type="building.yes" color="255,230,230" fill="1" layer="-1.00" shape="9207.448658,19048.377022 9258.411866,19044.139304 9256.373789,18983.367333 9217.203269,18986.746216 9219.444456,19014.629458 9202.911785,19015.365716 9207.448658,19048.377022"/>
    <poly id="142741653#1" type="shop.books" color="237,199,255" fill="1" layer="-1.00" shape="9207.448658,19048.377022 9258.411866,19044.139304 9256.373789,18983.367333 9217.203269,18986.746216 9219.444456,19014.629458 9202.911785,19015.365716 9207.448658,19048.377022"/>
    <poly id="142742728" type="building.yes" color="255,230,230" fill="1" layer="-1.00" shape="10155.742366,19047.650531 10186.000684,19045.724199 10210.566521,19044.169201 10214.647688,19103.289986 10157.941122,19106.385154 10155.742366,19047.650531"/>
    <poly id="142742728#1" type="tourism.hotel" color="207,245,201" fill="1" layer="-2.00" shape="10155.742366,19047.650531 10186.000684,19045.724199 10210.566521,19044.169201 10214.647688,19103.289986 10157.941122,19106.385154 10155.742366,19047.650531"/>
    <poly id="147111958" type="building.yes" color="255,230,230" fill="1" layer="-1.00" shape="8253.589069,19974.276526 8253.094260,19965.296869 8281.754578,19924.159065 8291.715025,19924.965832 8291.537246,19974.899653 8253.589069,19974.276526"/>
    <poly id="147112317" type="amenity.hospital" color="237,199,199" fill="1" layer="-1.00" shape="8092.546908,19109.258881 8124.006075,19108.344229 8135.193575,19096.007521 8133.524054,19084.347110 8131.198890,19084.442049 8130.636014,19072.688893 8127.113766,19072.631124 8126.891209,19060.284710 8123.844927,19060.001866 8123.808315,19047.835936 8116.280014,19048.422208 8116.132120,19043.041310 8075.441614,19044.702898 8075.105238,19036.990089 8062.630763,19037.949980 8063.606127,19049.898414 8032.320937,19051.714374 8034.607752,19084.499534 8092.218336,19082.638373 8092.546908,19109.258881"/>
    <poly id="147112317#1" type="building.yes" color="255,230,230" fill="1" layer="-1.00" shape="8092.546908,19109.258881 8124.006075,19108.344229 8135.193575,19096.007521 8133.524054,19084.347110 8131.198890,19084.442049 8130.636014,19072.688893 8127.113766,19072.631124 8126.891209,19060.284710 8123.844927,19060.001866 8123.808315,19047.835936 8116.280014,19048.422208 8116.132120,19043.041310 8075.441614,19044.702898 8075.105238,19036.990089 8062.630763,19037.949980 8063.606127,19049.898414 8032.320937,19051.714374 8034.607752,19084.499534 8092.218336,19082.638373 8092.546908,19109.258881"/>
    <poly id="147223223" type="building.yes" color="255,230,230" fill="1" layer="-1.00" shape="8960.406115,19155.021580 9014.812486,19210.014042 9040.657918,19199.550155 9048.370554,19216.422791 9032.093533,19233.753706 9040.794055,19242.269908 9054.499196,19278.936682 9018.529426,19290.486707 8980.808960,19251.250468 8970.717436,19261.220085 8960.343472,19251.079445 8948.275134,19243.450428 8947.022577,19242.653504 8938.168244,19242.319043 8938.473317,19219.224248 8940.066743,19173.549902 8960.406115,19155.021580"/>
    <poly id="147223223#1" type="shop.mall" color="237,199,255" fill="1" layer="-1.00" shape="8960.406115,19155.021580 9014.812486,19210.014042 9040.657918,19199.550155 9048.370554,19216.422791 9032.093533,19233.753706 9040.794055,19242.269908 9054.499196,19278.936682 9018.529426,19290.486707 8980.808960,19251.250468 8970.717436,19261.220085 8960.343472,19251.079445 8948.275134,19243.450428 8947.022577,19242.653504 8938.168244,19242.319043 8938.473317,19219.224248 8940.066743,19173.549902 8960.406115,19155.021580"/>
    <poly id="147399444" type="amenity.school" color="237,199,199" fill="1" layer="-1.00" shape="8123.060624,18773.765593 8119.999507,18765.741951 8116.175578,18751.817208 8106.454355,18678.166840 8102.596155,18668.633037 8080.836115,18635.007401 8130.192854,18609.567524 8154.323977,18600.559266 8207.617303,18738.224097 8123.060624,18773.765593"/>
    <poly id="147399449" type="amenity.school" color="237,199,199" fill="1" layer="-1.00" shape="7950.091617,18715.338301 7923.716476,18679.142257 7908.363203,18688.594213 7896.893409,18666.249325 7980.139825,18617.277139 8011.524145,18678.085656 7950.091617,18715.338301"/>
    <poly id="147608332" type="building.yes" color="255,230,230" fill="1" layer="-1.00" shape="8184.185975,19086.320411 8185.797933,19095.728693 8197.434215,19103.826528 8208.062915,19101.949347 8243.120867,19099.885342 8245.999757,19104.035761 8248.624509,19105.254343 8253.658232,19103.573710 8255.798512,19098.629590 8262.559502,19099.328317 8260.237562,19079.661534 8241.057961,19082.274401 8241.960580,19062.959969 8208.668349,19065.052958 8202.281877,19042.103507 8219.950232,19041.217926 8227.838881,19045.151129 8233.578000,19036.173987 8222.133807,19033.635176 8227.249068,19026.987707 8226.203317,19018.764212 8181.634312,19026.527575 8178.467366,19022.084122 8172.310875,19020.807621 8168.131130,19024.553887 8166.561983,19030.383474 8170.002387,19036.006911 8184.185975,19086.320411"/>
    <poly id="153933284" type="building.commercial" color="255,230,230" fill="1" layer="-1.00" shape="8843.362924,18996.384728 8855.154710,18988.139709 8861.554787,18984.374834 8871.556980,18981.556476 8888.592894,18982.380526 8888.633773,18930.592386 8866.259549,18932.718976 8845.783754,18937.150267 8830.217078,18944.612300 8807.609138,18959.787716 8794.235217,18979.218400 8786.242335,18989.655254 8777.141972,19009.988049 8775.272785,19027.135182 8776.461219,19056.498031 8821.793272,19052.331778 8820.670795,19032.163346 8821.431023,19019.267480 8827.529507,19008.577660 8827.309633,19012.178184 8827.647735,19014.590213 8828.051494,19015.883265 8828.374830,19016.897751 8829.417382,19018.977601 8831.498074,19021.684482 8834.378741,19023.994221 8836.533124,19025.094314 8840.021356,19026.072210 8843.627706,19026.187058 8845.322402,19025.948819 8848.598897,19024.871640 8850.734421,19023.675861 8853.215429,19021.576420 8854.990761,19019.310099 8856.506489,19016.174507 8857.299718,19012.173109 8856.793503,19007.351849 8855.008396,19003.330160 8853.659285,19001.511409 8851.734509,18999.660998 8850.605222,18998.832850 8846.997195,18997.098879 8843.362924,18996.384728"/>
    <poly id="155882936" type="building.retail" color="255,230,230" fill="1" layer="-1.00" shape="9120.357414,18734.177121 9114.852209,18730.060748 9112.845419,18689.661167 9111.616782,18665.077234 9117.298690,18658.483877 9193.819532,18643.111887 9208.327359,18654.063970 9215.822620,18721.890284 9211.827561,18725.860994 9120.357414,18734.177121"/>
    <poly id="155882936#1" type="shop.mall" color="237,199,255" fill="1" layer="-1.00" shape="9120.357414,18734.177121 9114.852209,18730.060748 9112.845419,18689.661167 9111.616782,18665.077234 9117.298690,18658.483877 9193.819532,18643.111887 9208.327359,18654.063970 9215.822620,18721.890284 9211.827561,18725.860994 9120.357414,18734.177121"/>
    <poly id="155882962" type="building.commercial" color="255,230,230" fill="1" layer="-1.00" shape="8765.189878,19079.611867 8842.809560,19076.432013 8863.387835,19070.350058 8875.858363,19062.182784 8885.008951,19051.997954 8893.406126,19035.945365 8893.992512,19016.980579 8894.242753,18988.606204 8868.918852,18989.752650 8855.368944,18994.630700 8860.885311,18999.212888 8862.590381,19004.652739 8863.895240,19009.731128 8863.753734,19016.027736 8861.610817,19020.539205 8856.545441,19026.998677 8850.997226,19031.232262 8843.758990,19034.273597 8835.886507,19034.532071 8828.547062,19032.248703 8830.066892,19062.127151 8765.281415,19064.298532 8765.189878,19079.611867"/>
    <poly id="155882992" type="building.commercial" color="255,230,230" fill="1" layer="-1.00" shape="8959.100972,19104.120575 8948.210929,19109.807527 8937.245071,19120.095461 8928.322779,19133.622003 8924.872691,19147.527062 8923.845387,19185.791733 8932.991769,19186.175351 8938.818745,19172.475813 8959.871639,19153.637649 8959.100972,19104.120575"/>
    <poly id="155882996" type="building.yes" color="255,230,230" fill="1" layer="-1.00" shape="8987.261743,18973.271772 8991.297076,18974.868671 8994.952244,18977.180135 8998.115027,18980.137774 9000.664309,18983.639785 9002.507851,18987.551569 9003.581927,18991.727910 9003.850778,18996.046232 9003.307886,19000.328991 9001.965070,19004.432217 8999.871923,19008.212562 8997.096742,19011.538076 8993.754854,19014.288674 8989.951778,19016.366288 8986.759886,19017.466997 8983.178511,19018.128788 8980.163601,19018.234345 8976.401467,19017.828549 8974.303512,19017.317109 8972.462531,19016.687920 8968.415636,19014.647249 8964.314210,19011.330367 8961.970604,19008.530406 8959.312503,19003.607132 8958.361418,19000.563972 8957.763866,18996.129338 8957.917867,18992.516638 8959.105126,18987.534758 8961.197589,18983.222089 8964.256118,18979.324573 8968.573453,18975.847035 8975.990460,18972.853090 8980.627107,18972.352856 8987.261743,18973.271772"/>
    <poly id="155883000" type="building.office" color="255,230,230" fill="1" layer="-1.00" shape="9011.870976,19059.589311 9025.078760,19013.019677 9039.508681,19002.323182 9088.004332,19000.516917 9097.516255,19029.141068 9094.425031,19039.026443 9084.235905,19048.595124 9074.590188,19056.143363 9011.870976,19059.589311"/>
    <poly id="155883007" type="building.yes" color="255,230,230" fill="1" layer="-1.00" shape="8987.261743,18973.271772 9038.094572,18947.738582 9015.801267,18896.258621 8940.467786,18931.424298 8932.919068,18947.568465 8929.108579,19020.597782 8969.723516,19063.663049 8980.964235,19061.918737 8988.971956,19053.456236 8989.951778,19016.366288 8986.759886,19017.466997 8983.178511,19018.128788 8980.163601,19018.234345 8976.401467,19017.828549 8974.303512,19017.317109 8972.462531,19016.687920 8968.415636,19014.647249 8964.314210,19011.330367 8961.970604,19008.530406 8959.312503,19003.607132 8958.361418,19000.563972 8957.763866,18996.129338 8957.917867,18992.516638 8959.105126,18987.534758 8961.197589,18983.222089 8964.256118,18979.324573 8968.573453,18975.847035 8975.990460,18972.853090 8980.627107,18972.352856 8987.261743,18973.271772"/>
    <poly id="155883007#1" type="shop.department_store" color="237,199,255" fill="1" layer="-1.00" shape="8987.261743,18973.271772 9038.094572,18947.738582 9015.801267,18896.258621 8940.467786,18931.424298 8932.919068,18947.568465 8929.108579,19020.597782 8969.723516,19063.663049 8980.964235,19061.918737 8988.971956,19053.456236 8989.951778,19016.366288 8986.759886,19017.466997 8983.178511,19018.128788 8980.163601,19018.234345 8976.401467,19017.828549 8974.303512,19017.317109 8972.462531,19016.687920 8968.415636,19014.647249 8964.314210,19011.330367 8961.970604,19008.530406 8959.312503,19003.607132 8958.361418,19000.563972 8957.763866,18996.129338 8957.917867,18992.516638 8959.105126,18987.534758 8961.197589,18983.222089 8964.256118,18979.324573 8968.573453,18975.847035 8975.990460,18972.853090 8980.627107,18972.352856 8987.261743,18973.271772"/>
    <poly id="155883013" type="building.commercial" color="255,230,230" fill="1" layer="-1.00" shape="8946.418701,18874.676649 8931.699927,18858.187705 8934.728381,18802.234715 8999.903831,18802.299766 9019.948671,18858.976930 8956.262192,18883.788252 8946.418701,18874.676649"/>
    <poly id="155883015" type="landuse.village_green" color="242,242,204" fill="1" layer="-3.00" shape="8883.471404,19072.510716 8887.864637,19068.435555 8891.429625,19064.180404 8894.063421,19061.407019 8895.220716,19061.681149 8895.695260,19063.263703 8894.863405,19068.462148 8893.883129,19072.349566 8891.766257,19074.133396 8883.083726,19075.975400 8882.189011,19075.816493 8881.690045,19075.142892 8881.524509,19074.297349 8883.471404,19072.510716"/>
    <poly id="155883019" type="landuse.village_green" color="242,242,204" fill="1" layer="-3.00" shape="8935.462477,19071.792676 8931.205890,19067.574984 8927.773403,19063.215620 8925.241852,19060.357122 8924.076336,19060.581888 8923.549910,19062.147948 8924.209861,19067.382066 8925.061710,19071.288583 8927.118662,19073.141189 8935.735612,19075.279339 8936.635078,19075.149996 8937.156148,19074.482113 8937.349452,19073.642483 8935.462477,19071.792676"/>
    <poly id="155883021" type="landuse.village_green" color="242,242,204" fill="1" layer="-3.00" shape="8893.099805,19114.732522 8889.131077,19110.242349 8884.959786,19106.580566 8882.245896,19103.896509 8882.538740,19102.748006 8884.142100,19102.319745 8889.349481,19103.292715 8893.223384,19104.365703 8894.963783,19106.512509 8896.401598,19110.972073 8896.586779,19115.211383 8896.402191,19116.095517 8895.704813,19116.571972 8894.852385,19116.713183 8893.099805,19114.732522"/>
    <poly id="155883023" type="landuse.village_green" color="242,242,204" fill="1" layer="-3.00" shape="8926.303177,18929.460885 8926.491918,18912.274986 8930.608983,18914.072820 8933.459083,18917.091822 8934.151028,18922.104673 8933.601460,18926.220978 8930.255122,18929.814340 8926.303177,18929.460885"/>
    <poly id="155883025" type="landuse.village_green" color="242,242,204" fill="1" layer="-3.00" shape="8935.344251,19100.745899 8932.035661,19101.478741 8928.580984,19103.051992 8927.028866,19104.956019 8925.958958,19107.976961 8925.662523,19110.489435 8926.629500,19112.568052 8930.495696,19108.949990 8938.293897,19102.879373 8935.344251,19100.745899"/>
    <poly id="155883026" type="building.office" color="255,230,230" fill="1" layer="-1.00" shape="9050.047013,19126.224677 9050.264298,19130.231641 9030.715136,19131.184572 9027.884003,19101.816738 9070.838925,19099.176047 9071.246703,19125.420993 9050.047013,19126.224677"/>
    <poly id="155883027" type="historic.memorial" color="128,255,128" fill="1" layer="-1.00" shape="8907.653177,19088.501241 8906.837717,19087.545181 8906.403633,19086.373611 8906.395947,19085.120350 8906.821544,19083.940767 8907.621393,19082.978054 8908.708496,19082.352765 8909.940111,19082.129086 8911.183487,19082.338099 8912.278458,19082.954985 8913.084475,19083.910890 8913.528002,19085.082616 8913.535687,19086.335877 8913.110089,19087.515460 8912.310240,19088.478172 8911.223137,19089.103461 8909.982080,19089.326984 8908.748148,19089.118126 8907.653177,19088.501241"/>
    <poly id="155883032" type="building.commercial" color="255,230,230" fill="1" layer="-1.00" shape="9023.377346,19408.904803 8977.392802,19416.641289 8987.784840,19472.649241 8946.333651,19482.146228 8949.491726,19349.576645 8948.427736,19290.351245 8949.699721,19291.115220 8961.784204,19298.334190 8993.351299,19317.208040 9023.377346,19408.904803"/>
    <poly id="155883032#1" type="shop.mall" color="237,199,255" fill="1" layer="-1.00" shape="9023.377346,19408.904803 8977.392802,19416.641289 8987.784840,19472.649241 8946.333651,19482.146228 8949.491726,19349.576645 8948.427736,19290.351245 8949.699721,19291.115220 8961.784204,19298.334190 8993.351299,19317.208040 9023.377346,19408.904803"/>
    <poly id="155883043" type="building.office" color="255,230,230" fill="1" layer="-1.00" shape="9124.370823,18818.414103 9115.180826,18749.650566 9209.293503,18738.605590 9225.376311,18753.132407 9226.775908,18769.058139 9231.771439,18769.140602 9233.587301,18780.448803 9227.905010,18781.341986 9230.092011,18810.222399 9207.078192,18812.160268 9201.609988,18820.686710 9180.592692,18822.990281 9170.396856,18815.203403 9153.370121,18817.240191 9149.299141,18821.808513 9128.964662,18822.803781 9124.370823,18818.414103"/>
    <poly id="155883046" type="tourism.hotel" color="207,245,201" fill="1" layer="-2.00" shape="8860.329667,19108.060047 8876.234873,19113.290246 8886.982379,19127.717558 8897.933131,19139.553246 8897.289839,19212.989636 8897.166118,19278.394571 8898.487992,19329.440007 8764.933690,19336.122989 8722.013488,19227.125705 8679.775158,19119.681357 8860.329667,19108.060047"/>
    <poly id="155883048" type="building.commercial" color="255,230,230" fill="1" layer="-1.00" shape="8787.732492,19300.700908 8784.211492,19262.139558 8835.496246,19259.513099 8839.340303,19297.946723 8787.732492,19300.700908"/>
    <poly id="155883049" type="amenity.fountain" color="237,199,199" fill="1" layer="-1.00" shape="8934.183391,19155.709438 8932.214775,19149.644204 8933.288750,19144.083791 8937.097483,19139.366906 8943.852930,19136.960884 8949.801900,19138.212261 8954.725429,19142.651660 8956.180937,19146.035827 8956.326556,19151.527623 8954.333977,19156.085911 8951.099431,19159.204249 8947.075816,19160.912281 8942.040335,19160.973454 8937.415828,19159.023079 8934.183391,19155.709438"/>
    <poly id="155883051" type="amenity.parking" color="184,184,179" fill="1" layer="-1.00" shape="8801.786088,19139.599668 8839.371586,19137.778950 8838.692043,19123.983283 8801.106495,19125.804006 8801.786088,19139.599668"/>
    <poly id="155883053" type="amenity.parking" color="184,184,179" fill="1" layer="-1.00" shape="8869.903333,19199.474767 8869.255579,19124.697448 8888.960256,19143.541857 8888.513588,19199.315614 8869.903333,19199.474767"/>
    <poly id="155883056" type="amenity.parking" color="184,184,179" fill="1" layer="-1.00" shape="8639.750905,19003.335406 8629.978234,18981.871394 8790.655428,18916.680227 8803.966656,18950.966891 8756.020001,18973.354898 8639.750905,19003.335406"/>
    <poly id="155884077" type="building.hotel" color="255,230,230" fill="1" layer="-1.00" shape="8775.071755,19151.214263 8795.312850,19167.317076 8809.324507,19149.870868 8829.096202,19149.165154 8853.746765,19168.800696 8853.337493,19193.645934 8828.013979,19194.226884 8829.121743,19207.829990 8762.464704,19210.713518 8761.972699,19205.027503 8758.557597,19205.348326 8736.205821,19207.298100 8733.654246,19180.407992 8702.267968,19155.660451 8696.407245,19145.028809 8729.183506,19118.043697 8755.291228,19140.408851 8768.497752,19151.782494 8775.071755,19151.214263"/>
    <poly id="155887600" type="building.hotel" color="255,230,230" fill="1" layer="-1.00" shape="8805.638843,19464.280289 8791.626475,19469.749615 8798.316496,19499.402711 8801.903164,19514.466126 8810.962819,19524.684775 8822.648471,19534.314576 8836.759719,19540.613084 8850.980302,19540.847354 8864.639256,19533.320697 8874.960459,19523.720738 8878.805022,19516.819759 8880.604189,19509.663286 8883.035041,19493.978159 8862.316870,19494.268907 8859.316357,19487.776363 8853.625736,19483.468529 8849.261432,19481.211961 8842.386672,19480.555313 8835.548972,19481.662540 8829.729171,19485.769664 8824.044698,19491.409397 8823.587286,19499.109195 8814.921013,19499.986701 8805.638843,19464.280289"/>
    <poly id="155887600#1" type="tourism.hotel" color="207,245,201" fill="1" layer="-2.00" shape="8805.638843,19464.280289 8791.626475,19469.749615 8798.316496,19499.402711 8801.903164,19514.466126 8810.962819,19524.684775 8822.648471,19534.314576 8836.759719,19540.613084 8850.980302,19540.847354 8864.639256,19533.320697 8874.960459,19523.720738 8878.805022,19516.819759 8880.604189,19509.663286 8883.035041,19493.978159 8862.316870,19494.268907 8859.316357,19487.776363 8853.625736,19483.468529 8849.261432,19481.211961 8842.386672,19480.555313 8835.548972,19481.662540 8829.729171,19485.769664 8824.044698,19491.409397 8823.587286,19499.109195 8814.921013,19499.986701 8805.638843,19464.280289"/>
    <poly id="156068414" type="amenity.courthouse" color="237,199,199" fill="1" layer="-1.00" shape="8546.640910,19986.899375 8663.926003,19993.775086 8669.375710,19911.712402 8625.253260,19906.317530 8581.787829,19897.152079 8548.154738,19894.857779 8546.640910,19986.899375"/>
    <poly id="156068415" type="building.commercial" color="255,230,230" fill="1" layer="-1.00" shape="8682.917002,19976.133475 8684.542299,19961.166974 8708.631039,19963.759280 8708.932704,19960.925286 8724.762285,19962.638653 8724.150233,19968.262137 8740.687055,19970.042623 8739.362619,19982.219472 8682.917002,19976.133475"/>
    <poly id="156068417" type="building.yes" color="255,230,230" fill="1" layer="-1.00" shape="8554.853501,19965.343045 8567.366623,19965.415794 8567.323944,19973.177866 8591.764571,19973.324866 8591.810144,19965.962068 8608.761837,19966.063532 8609.020061,19922.241364 8594.882633,19922.152934 8594.995877,19903.213625 8561.961155,19903.013982 8561.847062,19922.008722 8555.104016,19921.975439 8554.853501,19965.343045"/>
    <poly id="156068418" type="building.civic" color="255,230,230" fill="1" layer="-1.00" shape="8617.029262,19956.107953 8647.658744,19956.678519 8648.349655,19919.861053 8617.720062,19919.290489 8617.029262,19956.107953"/>
    <poly id="156344289" type="building.commercial" color="255,230,230" fill="1" layer="-1.00" shape="8311.897588,19969.877730 8397.174751,19969.271475 8397.106606,19960.199007 8396.996663,19945.048715 8396.836236,19923.199435 8311.558506,19923.816797 8311.717320,19945.200272 8311.827599,19959.762809 8311.897588,19969.877730"/>
    <poly id="159147840" type="building.yes" color="255,230,230" fill="1" layer="-1.00" shape="9877.810881,18955.354096 9834.985777,18964.348012 9840.568439,18995.691401 9882.020104,18995.468922 9877.810881,18955.354096"/>
    <poly id="162314589" type="amenity.townhall" color="237,199,199" fill="0" layer="-1.00" shape="10233.602517,19876.817246 10179.209387,19886.460179"/>
    <poly id="162314589#1" type="building.yes" color="255,230,230" fill="0" layer="-1.00" shape="10233.602517,19876.817246 10179.209387,19886.460179"/>
    <poly id="162314590" type="building.yes" color="255,230,230" fill="0" layer="-1.00" shape="10179.209387,19886.460179 10182.077272,19902.587987 10237.014429,19892.599239 10233.602517,19876.817246"/>
    <poly id="162314591" type="amenity.townhall" color="237,199,199" fill="0" layer="-1.00" shape="10179.209387,19886.460179 10170.547913,19846.104804 10188.639987,19859.457926 10213.864722,19854.509429 10225.481805,19835.761050 10233.602517,19876.817246"/>
    <poly id="162314591#1" type="building.yes" color="255,230,230" fill="0" layer="-1.00" shape="10179.209387,19886.460179 10170.547913,19846.104804 10188.639987,19859.457926 10213.864722,19854.509429 10225.481805,19835.761050 10233.602517,19876.817246"/>
    <poly id="166717323" type="amenity.school" color="237,199,199" fill="1" layer="-1.00" shape="10097.530625,18666.671690 10055.469465,18554.921144 10061.611947,18552.494569 10139.961725,18526.691154 10173.041946,18640.533142 10097.530625,18666.671690"/>
    <poly id="187714512" type="building.office" color="255,230,230" fill="1" layer="-1.00" shape="8977.392802,19416.641289 9023.377346,19408.904803 9038.499115,19461.031797 8987.784840,19472.649241 8977.392802,19416.641289"/>
    <poly id="187714513" type="building.yes" color="255,230,230" fill="1" layer="-1.00" shape="8949.699721,19291.115220 8948.275134,19243.450428 8960.343472,19251.079445 8961.784204,19298.334190 8949.699721,19291.115220"/>
    <poly id="187714513#1" type="shop.mall" color="237,199,255" fill="1" layer="-1.00" shape="8949.699721,19291.115220 8948.275134,19243.450428 8960.343472,19251.079445 8961.784204,19298.334190 8949.699721,19291.115220"/>
    <poly id="188614445" type="building.yes" color="255,230,230" fill="1" layer="-1.00" shape="8762.695596,19936.071366 8791.702176,19940.563565 8788.179900,19967.475680 8758.221872,19963.411406 8756.226951,19960.096005 8758.698345,19939.066293 8762.695596,19936.071366"/>
    <poly id="188614446" type="building.yes" color="255,230,230" fill="1" layer="-1.00" shape="8684.218413,19925.186703 8743.030750,19932.675694 8744.298518,19922.793478 8685.485942,19915.315569 8684.218413,19925.186703"/>
    <poly id="188614450" type="building.office" color="255,230,230" fill="1" layer="-1.00" shape="8836.960525,19866.109908 8865.983581,19865.601127 8866.664689,19903.938339 8837.651184,19904.447269 8836.960525,19866.109908"/>
    <poly id="188614454" type="building.commercial" color="255,230,230" fill="1" layer="-1.00" shape="8831.076540,19942.919997 8863.484153,19943.343069 8862.920910,19986.694502 8830.513435,19986.271426 8831.076540,19942.919997"/>