<?xml version="1.0" encoding="UTF-8"?>

<!-- generated on 2021-07-12 16:46:02 by Eclipse SUMO duarouter Version 1.9.2
<configuration xmlns:xsi="http://www.w3.org/2001/XMLSchema-instance" xsi:noNamespaceSchemaLocation="http://sumo.dlr.de/xsd/duarouterConfiguration.xsd">

    <input>
        <net-file value="osm.net.xml"/>
        <route-files value="osm22.bicycle.trips.xml"/>
    </input>

    <output>
        <output-file value="osm22.bicycle.trips.xml.tmp"/>
        <write-trips value="true"/>
    </output>

    <time>
        <begin value="0"/>
        <end value="3600"/>
    </time>

    <report>
        <no-warnings value="true"/>
        <ignore-errors value="true"/>
        <no-step-log value="true"/>
    </report>

</configuration>
-->

<routes xmlns:xsi="http://www.w3.org/2001/XMLSchema-instance" xsi:noNamespaceSchemaLocation="http://sumo.dlr.de/xsd/routes_file.xsd">
    <vType id="bike_bicycle" vClass="bicycle"/>
    <trip id="bike0" type="bike_bicycle" depart="0.00" departLane="best" from="256938736#3" to="-141166607#1"/>
    <trip id="bike1" type="bike_bicycle" depart="1.45" departLane="best" departSpeed="max" from="-61814416#2" to="-444086376#0"/>
    <trip id="bike2" type="bike_bicycle" depart="2.89" departLane="best" from="432530595" to="422206243#2"/>
    <trip id="bike3" type="bike_bicycle" depart="4.34" departLane="best" from="89637245#2" to="-192946582#0"/>
    <trip id="bike4" type="bike_bicycle" depart="5.78" departLane="best" from="-91364877#0" to="-146496699#3"/>
    <trip id="bike5" type="bike_bicycle" depart="7.23" departLane="best" departSpeed="max" from="-422206243#2" to="161318989#0"/>
    <trip id="bike6" type="bike_bicycle" depart="8.67" departLane="best" from="-146496699#0" to="-423517904#2"/>
    <trip id="bike7" type="bike_bicycle" depart="10.12" departLane="best" departSpeed="max" from="272565360" to="192946035#3"/>
    <trip id="bike8" type="bike_bicycle" depart="11.56" departLane="best" departSpeed="max" from="-422206243#2" to="256938735#1"/>
    <trip id="bike9" type="bike_bicycle" depart="13.01" departLane="best" departSpeed="max" from="74658302#0" to="-100101949"/>
    <trip id="bike10" type="bike_bicycle" depart="14.45" departLane="best" from="74658012#2" to="425461020#4"/>
    <trip id="bike11" type="bike_bicycle" depart="15.90" departLane="best" departSpeed="max" from="-854854177" to="-322659428#0"/>
    <trip id="bike12" type="bike_bicycle" depart="17.35" departLane="best" from="91997032#0" to="-89637182#8"/>
    <trip id="bike13" type="bike_bicycle" depart="18.79" departLane="best" departSpeed="max" from="-192946034#1" to="-223942098"/>
    <trip id="bike14" type="bike_bicycle" depart="20.24" departLane="best" from="854780595#5" to="265041497"/>
    <trip id="bike15" type="bike_bicycle" depart="21.68" departLane="best" departSpeed="max" from="74658302#0" to="524568467#2"/>
    <trip id="bike16" type="bike_bicycle" depart="23.13" departLane="best" from="147399827#6" to="99978914#0"/>
    <trip id="bike17" type="bike_bicycle" depart="24.57" departLane="best" from="-89637245#0" to="192946036#1"/>
    <trip id="bike18" type="bike_bicycle" depart="26.02" departLane="best" from="826049217#0" to="318193070"/>
    <trip id="bike19" type="bike_bicycle" depart="27.46" departLane="best" from="857726123#1" to="224361838"/>
    <trip id="bike20" type="bike_bicycle" depart="28.91" departLane="best" from="422206263#0" to="-147608333#1"/>
    <trip id="bike21" type="bike_bicycle" depart="30.35" departLane="best" from="-423287196#3" to="-779232503#1"/>
    <trip id="bike22" type="bike_bicycle" depart="31.80" departLane="best" from="-166261566#1" to="-444086376#7"/>
    <trip id="bike23" type="bike_bicycle" depart="33.25" departLane="best" departSpeed="max" from="-192946036#1" to="-74658359#0"/>
    <trip id="bike24" type="bike_bicycle" depart="34.69" departLane="best" from="256938735#4" to="-89637284#1"/>
    <trip id="bike25" type="bike_bicycle" depart="36.14" departLane="best" from="-89637182#9" to="-425461020#2"/>
    <trip id="bike26" type="bike_bicycle" depart="37.58" departLane="best" from="-524568471#3" to="91996897#2"/>
    <trip id="bike27" type="bike_bicycle" depart="39.03" departLane="best" departSpeed="max" from="272565360" to="27811140"/>
    <trip id="bike28" type="bike_bicycle" depart="40.47" departLane="best" from="-318198216#3" to="524568467#1"/>
    <trip id="bike29" type="bike_bicycle" depart="41.92" departLane="best" from="-318197092#1" to="-89638689#0"/>
    <trip id="bike30" type="bike_bicycle" depart="43.36" departLane="best" from="99979311#0" to="322659428#4"/>
    <trip id="bike31" type="bike_bicycle" depart="44.81" departLane="best" departSpeed="max" from="158300787#0" to="423287196#0"/>
    <trip id="bike32" type="bike_bicycle" depart="46.25" departLane="best" from="854780594#6" to="74658302#1"/>
    <trip id="bike33" type="bike_bicycle" depart="47.70" departLane="best" from="-423287196#4" to="-146496700#2"/>
    <trip id="bike34" type="bike_bicycle" depart="49.15" departLane="best" from="-826049217#2" to="-61877415#2"/>
    <trip id="bike35" type="bike_bicycle" depart="50.59" departLane="best" from="-390566342" to="94327820#3"/>
    <trip id="bike36" type="bike_bicycle" depart="52.04" departLane="best" from="89637182#2" to="-857565975"/>
    <trip id="bike37" type="bike_bicycle" depart="53.48" departLane="best" from="318055423#0" to="-91828640#0"/>
    <trip id="bike38" type="bike_bicycle" depart="54.93" departLane="best" from="89638684#2" to="141166589#2"/>
    <trip id="bike39" type="bike_bicycle" depart="56.37" departLane="best" from="-524568471#0" to="-524568471#1"/>
    <trip id="bike40" type="bike_bicycle" depart="57.82" departLane="best" from="161318989#0" to="-61862487#1"/>
    <trip id="bike41" type="bike_bicycle" depart="59.26" departLane="best" from="166261566#2" to="89638687#6"/>
    <trip id="bike42" type="bike_bicycle" depart="60.71" departLane="best" from="-89638684#0" to="-442891976#0"/>
    <trip id="bike43" type="bike_bicycle" depart="62.15" departLane="best" from="99979574#1" to="161318989#6"/>
    <trip id="bike44" type="bike_bicycle" depart="63.60" departLane="best" departSpeed="max" from="-192946034#1" to="-147608333#2"/>
    <trip id="bike45" type="bike_bicycle" depart="65.05" departLane="best" from="-205422093#1" to="318198216#1"/>
    <trip id="bike46" type="bike_bicycle" depart="66.49" departLane="best" from="61877415#0" to="-96779088#1"/>
    <trip id="bike47" type="bike_bicycle" depart="67.94" departLane="best" from="-161318989#6" to="-89638689#0"/>
    <trip id="bike48" type="bike_bicycle" depart="69.38" departLane="best" from="99979563#0" to="166261566#3"/>
    <trip id="bike49" type="bike_bicycle" depart="70.83" departLane="best" from="949327407" to="89637244#3"/>
    <trip id="bike50" type="bike_bicycle" depart="72.27" departLane="best" from="-100102162#0" to="444086385#0"/>
    <trip id="bike51" type="bike_bicycle" depart="73.72" departLane="best" from="324477594#1" to="192946033"/>
    <trip id="bike52" type="bike_bicycle" depart="75.16" departLane="best" from="-524568471#3" to="323619811"/>
    <trip id="bike53" type="bike_bicycle" depart="76.61" departLane="best" from="-223942066#1" to="-99979574#1"/>
    <trip id="bike54" type="bike_bicycle" depart="78.06" departLane="best" departSpeed="max" from="-94494930#3" to="94494930#3"/>
    <trip id="bike55" type="bike_bicycle" depart="79.50" departLane="best" from="89637182#1" to="-61862488#0"/>
    <trip id="bike56" type="bike_bicycle" depart="80.95" departLane="best" from="100102119#0" to="-390566340#1"/>
    <trip id="bike57" type="bike_bicycle" depart="82.39" departLane="best" from="89638684#0" to="89637249#1"/>
    <trip id="bike58" type="bike_bicycle" depart="83.84" departLane="best" from="-74658302#1" to="322659428#3"/>
    <trip id="bike59" type="bike_bicycle" depart="85.28" departLane="best" from="223942131#1" to="-322659427#0"/>
    <trip id="bike60" type="bike_bicycle" depart="86.73" departLane="best" from="444086385#3" to="192946034#1"/>
    <trip id="bike61" type="bike_bicycle" depart="88.17" departLane="best" from="61857817#1" to="188614447#1"/>
    <trip id="bike62" type="bike_bicycle" depart="89.62" departLane="best" from="-100101934#0" to="-857726125#1"/>
    <trip id="bike63" type="bike_bicycle" depart="91.06" departLane="best" from="-106972919" to="91828645#0"/>
    <trip id="bike64" type="bike_bicycle" depart="92.51" departLane="best" from="89637182#5" to="857726119"/>
    <trip id="bike65" type="bike_bicycle" depart="93.96" departLane="best" departSpeed="max" from="-74658359#5" to="-155883037#3"/>
    <trip id="bike66" type="bike_bicycle" depart="95.40" departLane="best" from="89637182#5" to="94327820#7"/>
    <trip id="bike67" type="bike_bicycle" depart="96.85" departLane="best" departSpeed="max" from="-192505657" to="147608333#1"/>
    <trip id="bike68" type="bike_bicycle" depart="98.29" departLane="best" from="-165397335#1" to="61877415#0"/>
    <trip id="bike69" type="bike_bicycle" depart="99.74" departLane="best" from="445002332" to="-256938735#6"/>
    <trip id="bike70" type="bike_bicycle" depart="101.18" departLane="best" from="-99978916#0" to="192946036#1"/>
    <trip id="bike71" type="bike_bicycle" depart="102.63" departLane="best" from="-524568471#1" to="89637249#3"/>
    <trip id="bike72" type="bike_bicycle" depart="104.07" departLane="best" from="-91364877#1" to="-425461020#4"/>
    <trip id="bike73" type="bike_bicycle" depart="105.52" departLane="best" from="147608333#2" to="524568467#2"/>
    <trip id="bike74" type="bike_bicycle" depart="106.96" departLane="best" from="-324480439" to="-854780596#3"/>
    <trip id="bike75" type="bike_bicycle" depart="108.41" departLane="best" from="99979559#1" to="323623757#1"/>
    <trip id="bike76" type="bike_bicycle" depart="109.86" departLane="best" departSpeed="max" from="-91996897#2" to="165486154"/>
    <trip id="bike77" type="bike_bicycle" depart="111.30" departLane="best" from="-223942251#0" to="-444086376#0"/>
    <trip id="bike78" type="bike_bicycle" depart="112.75" departLane="best" departSpeed="max" from="-854854150#3" to="256520638"/>
    <trip id="bike79" type="bike_bicycle" depart="114.19" departLane="best" from="-423287196#5" to="-442891976#1"/>
    <trip id="bike80" type="bike_bicycle" depart="115.64" departLane="best" departSpeed="max" from="-165486154" to="318345279"/>
    <trip id="bike81" type="bike_bicycle" depart="117.08" departLane="best" from="-423287196#4" to="89642715"/>
    <trip id="bike82" type="bike_bicycle" depart="118.53" departLane="best" from="857565975" to="-165486156#0"/>
    <trip id="bike83" type="bike_bicycle" depart="119.97" departLane="best" from="-425461020#4" to="390566340#2"/>
    <trip id="bike84" type="bike_bicycle" depart="121.42" departLane="best" from="-422206222#1" to="-265042795"/>
    <trip id="bike85" type="bike_bicycle" depart="122.86" departLane="best" from="91205109#1" to="223942251#1"/>
    <trip id="bike86" type="bike_bicycle" depart="124.31" departLane="best" from="-99978914#0" to="74658359#5"/>
    <trip id="bike87" type="bike_bicycle" depart="125.76" departLane="best" departSpeed="max" from="74658302#0" to="-422848103"/>
    <trip id="bike88" type="bike_bicycle" depart="127.20" departLane="best" departSpeed="max" from="-192946035#3" to="-99979311#0"/>
    <trip id="bike89" type="bike_bicycle" depart="128.65" departLane="best" from="-91364877#2" to="146496700#0"/>
    <trip id="bike90" type="bike_bicycle" depart="130.09" departLane="best" from="425461020#3" to="422206222#2"/>
    <trip id="bike91" type="bike_bicycle" depart="131.54" departLane="best" from="99978916#1" to="-223942131#1"/>
    <trip id="bike92" type="bike_bicycle" depart="132.98" departLane="best" from="-89638687#0" to="-89637243#1"/>
    <trip id="bike93" type="bike_bicycle" depart="134.43" departLane="best" from="857726123#1" to="-524568471#4"/>
    <trip id="bike94" type="bike_bicycle" depart="135.87" departLane="best" from="-323623757#0" to="100102162#1"/>
    <trip id="bike95" type="bike_bicycle" depart="137.32" departLane="best" from="-91364877#0" to="-74658359#0"/>
    <trip id="bike96" type="bike_bicycle" depart="138.76" departLane="best" from="-444086376#1" to="91828640#1"/>
    <trip id="bike97" type="bike_bicycle" depart="140.21" departLane="best" from="-94327820#2" to="89637244#4"/>
    <trip id="bike98" type="bike_bicycle" depart="141.66" departLane="best" from="155882977#1" to="-155882959"/>
    <trip id="bike99" type="bike_bicycle" depart="143.10" departLane="best" from="99979624" to="857726123#2"/>
    <trip id="bike100" type="bike_bicycle" depart="144.55" departLane="best" from="94494930#2" to="91828640#2"/>
    <trip id="bike101" type="bike_bicycle" depart="145.99" departLane="best" from="854780595#7" to="-324477594#0"/>
    <trip id="bike102" type="bike_bicycle" depart="147.44" departLane="best" departSpeed="max" from="-99979556#1" to="-432528029"/>
    <trip id="bike103" type="bike_bicycle" depart="148.88" departLane="best" from="-89638684#2" to="-159796724"/>
    <trip id="bike104" type="bike_bicycle" depart="150.33" departLane="best" from="-89637245#1" to="99979556#1"/>
    <trip id="bike105" type="bike_bicycle" depart="151.77" departLane="best" from="-524568471#1" to="74658359#5"/>
    <trip id="bike106" type="bike_bicycle" depart="153.22" departLane="best" from="-949327405" to="-99978914#0"/>
    <trip id="bike108" type="bike_bicycle" depart="156.11" departLane="best" departSpeed="max" from="158300787#0" to="444086376#5"/>
    <trip id="bike109" type="bike_bicycle" depart="157.56" departLane="best" from="-27811151#0" to="-854780594#12"/>
    <trip id="bike110" type="bike_bicycle" depart="159.00" departLane="best" from="94494930#2" to="233257351#0"/>
    <trip id="bike111" type="bike_bicycle" depart="160.45" departLane="best" from="155882951#1" to="61862480#0"/>
    <trip id="bike112" type="bike_bicycle" depart="161.89" departLane="best" from="-155883037#3" to="253432192#1"/>
    <trip id="bike113" type="bike_bicycle" depart="163.34" departLane="best" from="100102121" to="89637182#6"/>
    <trip id="bike114" type="bike_bicycle" depart="164.78" departLane="best" from="-27811151#3" to="96779084"/>
    <trip id="bike115" type="bike_bicycle" depart="166.23" departLane="best" from="-166261566#1" to="-422206243#1"/>
    <trip id="bike116" type="bike_bicycle" depart="167.67" departLane="best" from="192946035#2" to="422206243#1"/>
    <trip id="bike117" type="bike_bicycle" depart="169.12" departLane="best" from="-425461020#1" to="-256520637#1"/>
    <trip id="bike118" type="bike_bicycle" depart="170.56" departLane="best" from="89637245#0" to="-524568471#1"/>
    <trip id="bike119" type="bike_bicycle" depart="172.01" departLane="best" from="192946035#1" to="318193070"/>
    <trip id="bike120" type="bike_bicycle" depart="173.46" departLane="best" from="-91364633#1" to="253432192#0"/>
    <trip id="bike121" type="bike_bicycle" depart="174.90" departLane="best" from="146496700#0" to="91996897#2"/>
    <trip id="bike122" type="bike_bicycle" depart="176.35" departLane="best" departSpeed="max" from="-330606923" to="444086376#3"/>
    <trip id="bike123" type="bike_bicycle" depart="177.79" departLane="best" from="-425461020#4" to="-91828640#0"/>
    <trip id="bike124" type="bike_bicycle" depart="179.24" departLane="best" from="322659428#1" to="-854780594#4"/>
    <trip id="bike125" type="bike_bicycle" depart="180.68" departLane="best" from="-854780594#0" to="61862480#4"/>
    <trip id="bike126" type="bike_bicycle" depart="182.13" departLane="best" departSpeed="max" from="-165486154" to="141166589#2"/>
    <trip id="bike127" type="bike_bicycle" depart="183.57" departLane="best" from="99979616" to="99979563#0"/>
    <trip id="bike128" type="bike_bicycle" depart="185.02" departLane="best" departSpeed="max" from="-165486154" to="-432528029"/>
    <trip id="bike129" type="bike_bicycle" depart="186.46" departLane="best" from="-524568471#1" to="91996897#0"/>
    <trip id="bike130" type="bike_bicycle" depart="187.91" departLane="best" from="89637182#8" to="89637282#0"/>
    <trip id="bike131" type="bike_bicycle" depart="189.36" departLane="best" from="-89637182#8" to="-322659428#3"/>
    <trip id="bike132" type="bike_bicycle" depart="190.80" departLane="best" from="826049220" to="432981001"/>
    <trip id="bike133" type="bike_bicycle" depart="192.25" departLane="best" from="223942131#4" to="99979556#1"/>
    <trip id="bike134" type="bike_bicycle" depart="193.69" departLane="best" from="27811151#3" to="-100102119#0"/>
    <trip id="bike135" type="bike_bicycle" depart="195.14" departLane="best" departSpeed="max" from="775717148#0" to="-854780594#3"/>
    <trip id="bike136" type="bike_bicycle" depart="196.58" departLane="best" departSpeed="max" from="321792153" to="91997032#1"/>
    <trip id="bike137" type="bike_bicycle" depart="198.03" departLane="best" from="-233258650" to="-233257351#1"/>
    <trip id="bike138" type="bike_bicycle" depart="199.47" departLane="best" from="-205422092#1" to="192946582#1"/>
    <trip id="bike139" type="bike_bicycle" depart="200.92" departLane="best" from="-61814416#0" to="265042795"/>
    <trip id="bike140" type="bike_bicycle" depart="202.37" departLane="best" from="423517904#2" to="-423529537#0"/>
    <trip id="bike141" type="bike_bicycle" depart="203.81" departLane="best" from="256938735#2" to="-61862488#0"/>
    <trip id="bike142" type="bike_bicycle" depart="205.26" departLane="best" departSpeed="max" from="-99979561" to="89642715"/>
    <trip id="bike143" type="bike_bicycle" depart="206.70" departLane="best" from="854780595#1" to="-205422093#0"/>
    <trip id="bike144" type="bike_bicycle" depart="208.15" departLane="best" from="-91364877#2" to="-74658302#1"/>
    <trip id="bike145" type="bike_bicycle" depart="209.59" departLane="best" departSpeed="max" from="-100101939#1" to="61957183"/>
    <trip id="bike146" type="bike_bicycle" depart="211.04" departLane="best" from="256938735#5" to="-61862487#0"/>
    <trip id="bike147" type="bike_bicycle" depart="212.48" departLane="best" from="442418469#2" to="192946036#1"/>
    <trip id="bike148" type="bike_bicycle" depart="213.93" departLane="best" from="-91828640#1" to="-100102119#2"/>
    <trip id="bike149" type="bike_bicycle" depart="215.37" departLane="best" from="-165486156#2" to="89637284#1"/>
    <trip id="bike150" type="bike_bicycle" depart="216.82" departLane="best" from="89637250#4" to="192946035#3"/>
    <trip id="bike151" type="bike_bicycle" depart="218.27" departLane="best" from="854780594#0" to="233258652"/>
    <trip id="bike152" type="bike_bicycle" depart="219.71" departLane="best" from="-265041497" to="-256938735#5"/>
    <trip id="bike153" type="bike_bicycle" depart="221.16" departLane="best" departSpeed="max" from="-74658359#5" to="89638688#0"/>
    <trip id="bike154" type="bike_bicycle" depart="222.60" departLane="best" from="61877416#0" to="89637244#3"/>
    <trip id="bike155" type="bike_bicycle" depart="224.05" departLane="best" from="89637249#3" to="-425461020#2"/>
    <trip id="bike156" type="bike_bicycle" depart="225.49" departLane="best" from="-442891976#4" to="-223942192"/>
    <trip id="bike157" type="bike_bicycle" depart="226.94" departLane="best" from="61862480#0" to="89637284#2"/>
    <trip id="bike158" type="bike_bicycle" depart="228.38" departLane="best" from="-89638687#4" to="318197092#1"/>
    <trip id="bike159" type="bike_bicycle" depart="229.83" departLane="best" departSpeed="max" from="-27811140" to="91828645#1"/>
    <trip id="bike160" type="bike_bicycle" depart="231.27" departLane="best" from="857726123#4" to="99978916#0"/>
    <trip id="bike161" type="bike_bicycle" depart="232.72" departLane="best" from="74658302#1" to="89637282#3"/>
    <trip id="bike162" type="bike_bicycle" depart="234.17" departLane="best" from="-141166607#1" to="524568471#4"/>
    <trip id="bike163" type="bike_bicycle" depart="235.61" departLane="best" from="-854780596#1" to="91996893#0"/>
    <trip id="bike164" type="bike_bicycle" depart="237.06" departLane="best" from="61957183" to="89637245#1"/>
    <trip id="bike165" type="bike_bicycle" depart="238.50" departLane="best" from="74658302#1" to="-61877415#1"/>
    <trip id="bike166" type="bike_bicycle" depart="239.95" departLane="best" from="61862486#0" to="-223957414#1"/>
    <trip id="bike167" type="bike_bicycle" depart="241.39" departLane="best" from="89545382#1" to="89637244#1"/>
    <trip id="bike168" type="bike_bicycle" depart="242.84" departLane="best" from="-422206263#2" to="854780596#1"/>
    <trip id="bike169" type="bike_bicycle" depart="244.28" departLane="best" from="-949327407" to="-854780595#1"/>
    <trip id="bike170" type="bike_bicycle" depart="245.73" departLane="best" from="61877415#3" to="-444086376#1"/>
    <trip id="bike171" type="bike_bicycle" depart="247.17" departLane="best" from="-141166607#0" to="-423287196#2"/>
    <trip id="bike172" type="bike_bicycle" depart="248.62" departLane="best" from="-854780595#5" to="89637245#1"/>
    <trip id="bike173" type="bike_bicycle" depart="250.07" departLane="best" from="94494930#0" to="-74658359#1"/>
    <trip id="bike174" type="bike_bicycle" depart="251.51" departLane="best" from="256938736#5" to="-91996897#1"/>
    <trip id="bike175" type="bike_bicycle" depart="252.96" departLane="best" from="99978914#1" to="192505657"/>
    <trip id="bike176" type="bike_bicycle" depart="254.40" departLane="best" from="91364633#2" to="-233257351#1"/>
    <trip id="bike177" type="bike_bicycle" depart="255.85" departLane="best" from="949327406#0" to="-390566340#1"/>
    <trip id="bike178" type="bike_bicycle" depart="257.29" departLane="best" from="94327820#4" to="-61877415#0"/>
    <trip id="bike179" type="bike_bicycle" depart="258.74" departLane="best" from="-205422092#2" to="-99979574#1"/>
    <trip id="bike180" type="bike_bicycle" depart="260.18" departLane="best" from="425461020#2" to="-854854150#1"/>
    <trip id="bike181" type="bike_bicycle" depart="261.63" departLane="best" from="223942066#2" to="162311603"/>
    <trip id="bike182" type="bike_bicycle" depart="263.07" departLane="best" from="-89637249#1" to="224361836#1"/>
    <trip id="bike183" type="bike_bicycle" depart="264.52" departLane="best" from="-444086376#6" to="442418469#2"/>
    <trip id="bike184" type="bike_bicycle" depart="265.97" departLane="best" from="-100101934#1" to="91828640#2"/>
    <trip id="bike185" type="bike_bicycle" depart="267.41" departLane="best" from="147608333#1" to="444086376#7"/>
    <trip id="bike186" type="bike_bicycle" depart="268.86" departLane="best" from="442891976#0" to="390566343"/>
    <trip id="bike187" type="bike_bicycle" depart="270.30" departLane="best" from="-89637182#1" to="-165486156#0"/>
    <trip id="bike188" type="bike_bicycle" depart="271.75" departLane="best" departSpeed="max" from="321792153" to="-89637182#0"/>
    <trip id="bike189" type="bike_bicycle" depart="273.19" departLane="best" from="-826049217#1" to="89637182#0"/>
    <trip id="bike190" type="bike_bicycle" depart="274.64" departLane="best" departSpeed="max" from="423529536" to="-854780594#4"/>
    <trip id="bike191" type="bike_bicycle" depart="276.08" departLane="best" from="-775888149#0" to="-94327820#6"/>
    <trip id="bike192" type="bike_bicycle" depart="277.53" departLane="best" from="-89638687#0" to="-854780594#11"/>
    <trip id="bike193" type="bike_bicycle" depart="278.97" departLane="best" from="-224361836#1" to="-96779088#0"/>
    <trip id="bike194" type="bike_bicycle" depart="280.42" departLane="best" from="91364877#0" to="422206243#2"/>
    <trip id="bike195" type="bike_bicycle" depart="281.87" departLane="best" from="89637250#3" to="318055423#1"/>
    <trip id="bike196" type="bike_bicycle" depart="283.31" departLane="best" from="-74658359#0" to="192946036#0"/>
    <trip id="bike197" type="bike_bicycle" depart="284.76" departLane="best" from="-100101934#0" to="-779232503#0"/>
    <trip id="bike198" type="bike_bicycle" depart="286.20" departLane="best" departSpeed="max" from="-91828640#2" to="233257351#1"/>
    <trip id="bike199" type="bike_bicycle" depart="287.65" departLane="best" from="318055423#0" to="146496699#2"/>
    <trip id="bike200" type="bike_bicycle" depart="289.09" departLane="best" from="-94327820#1" to="-432528029"/>
    <trip id="bike201" type="bike_bicycle" depart="290.54" departLane="best" from="-99978914#1" to="89638689#1"/>
    <trip id="bike202" type="bike_bicycle" depart="291.98" departLane="best" from="61877416#0" to="-324477595#2"/>
    <trip id="bike203" type="bike_bicycle" depart="293.43" departLane="best" departSpeed="max" from="-166261566#3" to="165397335#2"/>
    <trip id="bike204" type="bike_bicycle" depart="294.87" departLane="best" from="256938735#1" to="-89637182#6"/>
    <trip id="bike205" type="bike_bicycle" depart="296.32" departLane="best" departSpeed="max" from="775717148#0" to="61862480#3"/>
    <trip id="bike206" type="bike_bicycle" depart="297.77" departLane="best" from="322659428#4" to="-444086376#0"/>
    <trip id="bike207" type="bike_bicycle" depart="299.21" departLane="best" from="-324479874" to="-141166607#0"/>
    <trip id="bike208" type="bike_bicycle" depart="300.66" departLane="best" from="-442418469#2" to="146496701"/>
    <trip id="bike209" type="bike_bicycle" depart="302.10" departLane="best" from="854780595#8" to="-165486156#2"/>
    <trip id="bike210" type="bike_bicycle" depart="303.55" departLane="best" departSpeed="max" from="-89642715" to="318198216#3"/>
    <trip id="bike211" type="bike_bicycle" depart="304.99" departLane="best" from="-324477595#0" to="425461020#2"/>
    <trip id="bike212" type="bike_bicycle" depart="306.44" departLane="best" from="100101934#0" to="-524566662"/>
    <trip id="bike213" type="bike_bicycle" depart="307.88" departLane="best" from="318055423#1" to="-100101949"/>
    <trip id="bike214" type="bike_bicycle" depart="309.33" departLane="best" departSpeed="max" from="444086376#0" to="61879252#2"/>
    <trip id="bike215" type="bike_bicycle" depart="310.77" departLane="best" from="-205422092#0" to="-99978916#0"/>
    <trip id="bike216" type="bike_bicycle" depart="312.22" departLane="best" from="-321958948" to="949327406#1"/>
    <trip id="bike217" type="bike_bicycle" depart="313.67" departLane="best" from="141166607#1" to="-155882951#1"/>
    <trip id="bike218" type="bike_bicycle" depart="315.11" departLane="best" from="-442891976#4" to="89637182#1"/>
    <trip id="bike219" type="bike_bicycle" depart="316.56" departLane="best" from="-949327406#0" to="854780594#14"/>
    <trip id="bike220" type="bike_bicycle" depart="318.00" departLane="best" from="322659427#0" to="99979556#1"/>
    <trip id="bike221" type="bike_bicycle" depart="319.45" departLane="best" from="192946035#2" to="94494930#2"/>
    <trip id="bike222" type="bike_bicycle" depart="320.89" departLane="best" from="89637245#1" to="27811151#2"/>
    <trip id="bike223" type="bike_bicycle" depart="322.34" departLane="best" departSpeed="max" from="423529536" to="161318989#0"/>
    <trip id="bike224" type="bike_bicycle" depart="323.78" departLane="best" from="826049217#1" to="192946036#0"/>
    <trip id="bike225" type="bike_bicycle" depart="325.23" departLane="best" from="89637249#1" to="61814416#2"/>
    <trip id="bike226" type="bike_bicycle" depart="326.68" departLane="best" from="-99978914#2" to="-61862480#5"/>
    <trip id="bike227" type="bike_bicycle" depart="328.12" departLane="best" from="-442891976#2" to="322659428#0"/>
    <trip id="bike228" type="bike_bicycle" depart="329.57" departLane="best" from="445000099" to="165486156#3"/>
    <trip id="bike229" type="bike_bicycle" depart="331.01" departLane="best" from="233258652" to="-74658302#0"/>
    <trip id="bike230" type="bike_bicycle" depart="332.46" departLane="best" from="-165486156#4" to="-779232503#0"/>
    <trip id="bike231" type="bike_bicycle" depart="333.90" departLane="best" departSpeed="max" from="-607559946" to="-857726123#3"/>
    <trip id="bike232" type="bike_bicycle" depart="335.35" departLane="best" from="155882945" to="-27811151#0"/>
    <trip id="bike233" type="bike_bicycle" depart="336.79" departLane="best" from="-423517904#0" to="423529537#1"/>
    <trip id="bike234" type="bike_bicycle" depart="338.24" departLane="best" from="422206263#2" to="-161318989#6"/>
    <trip id="bike235" type="bike_bicycle" depart="339.68" departLane="best" from="-89638687#5" to="192946035#1"/>
    <trip id="bike236" type="bike_bicycle" depart="341.13" departLane="best" departSpeed="max" from="-89642715" to="-425461020#0"/>
    <trip id="bike237" type="bike_bicycle" depart="342.58" departLane="best" from="-91364633#2" to="89642715"/>
    <trip id="bike238" type="bike_bicycle" depart="344.02" departLane="best" from="165486156#6" to="425461020#1"/>
    <trip id="bike239" type="bike_bicycle" depart="345.47" departLane="best" departSpeed="max" from="854857377" to="61877416#1"/>
    <trip id="bike240" type="bike_bicycle" depart="346.91" departLane="best" from="-89637245#2" to="-100101949"/>
    <trip id="bike241" type="bike_bicycle" depart="348.36" departLane="best" from="-857726123#3" to="61862480#6"/>
    <trip id="bike242" type="bike_bicycle" depart="349.80" departLane="best" from="854780596#3" to="94494930#3"/>
    <trip id="bike243" type="bike_bicycle" depart="351.25" departLane="best" from="-91364633#1" to="61857817#1"/>
    <trip id="bike244" type="bike_bicycle" depart="352.69" departLane="best" from="155882963" to="265041450#1"/>
    <trip id="bike245" type="bike_bicycle" depart="354.14" departLane="best" departSpeed="max" from="-422206243#2" to="-442891976#1"/>
    <trip id="bike246" type="bike_bicycle" depart="355.58" departLane="best" departSpeed="max" from="-91996897#2" to="-146496699#2"/>
    <trip id="bike247" type="bike_bicycle" depart="357.03" departLane="best" from="-854854150#1" to="422206243#2"/>
    <trip id="bike248" type="bike_bicycle" depart="358.48" departLane="best" from="-89638687#2" to="-324477593"/>