<?xml version="1.0" encoding="UTF-8"?>

<!-- generated on 2021-07-12 16:46:04 by Eclipse SUMO duarouter Version 1.9.2
<configuration xmlns:xsi="http://www.w3.org/2001/XMLSchema-instance" xsi:noNamespaceSchemaLocation="http://sumo.dlr.de/xsd/duarouterConfiguration.xsd">

    <input>
        <net-file value="osm.net.xml"/>
        <additional-files value="osm_stops.add.xml,osm_pt22.rou.xml"/>
        <route-files value="osm22.pedestrian.trips.xml"/>
    </input>

    <output>
        <output-file value="osm22.pedestrian.rou.xml"/>
        <alternatives-output value="osm22.pedestrian.rou.alt.xml"/>
    </output>

    <time>
        <begin value="0"/>
        <end value="3600"/>
    </time>

    <report>
        <no-warnings value="true"/>
        <ignore-errors value="true"/>
        <no-step-log value="true"/>
    </report>

</configuration>
-->

<routes xmlns:xsi="http://www.w3.org/2001/XMLSchema-instance" xsi:noNamespaceSchemaLocation="http://sumo.dlr.de/xsd/routes_file.xsd">
    <vType id="ped_pedestrian" vClass="pedestrian"/>
    <person id="ped0" type="ped_pedestrian" depart="0.00">
        <walk edges="444086376#2 -89637182#0 -89637182#1 -89637182#2 -89637182#4 -89637182#5 -89637182#6 -442891976#3 -442891976#2 -442891976#1 -442891976#0 -89637244#5 -89637244#4 -89637244#3 -89637244#2 -89637244#1 -89637244#0 -423287196#0 141166589#0" busStop="8040230684"/> <!-- 大行宫 -->
        <ride busStop="8039975502" lines="2:1" intended="pt_subway_2:1.1" depart="1647.00"/> <!-- 上海路 -->
        <walk edges="-74658359#0 -146496699#3"/>
    </person>
    <person id="ped1" type="ped_pedestrian" depart="1.45">
        <walk edges="-857726119 524568471#0 -524568471#1 -524568471#2 -524568471#3 -524568471#4 -61862480#2"/>
    </person>
    <person id="ped2" type="ped_pedestrian" depart="2.89">
        <walk edges="854780594#12 -854780594#11 -854780594#8 -854780594#6 -854780594#5 -854780594#4 -854780594#3 -854780594#2 -854780594#1 -854781558 91364633#1 91364633#2 91364633#3 524568471#0 524568471#1 524568471#2 524568471#3 524568471#4 61862486#0 61862486#1 61862487#0 61862487#1"/>
    </person>
    <person id="ped3" type="ped_pedestrian" depart="4.34">
        <walk edges="89637244#3 233257351#1 233257351#0 -223942131#2 -223942131#3"/>
    </person>
    <person id="ped4" type="ped_pedestrian" depart="5.78">
        <walk edges="146496700#3 -146496700#4"/>
    </person>
    <person id="ped5" type="ped_pedestrian" depart="7.23">
        <walk edges="-61857815 -422206222#2 96779087 233258650 -233257376 -233257351#0 -223942131#1 233257334 -205422092#2 -205422092#1 205422093#0"/>
    </person>
    <person id="ped6" type="ped_pedestrian" depart="8.67">
        <walk edges="-146496700#0 61877416#0 61877416#1 61877416#2 61877416#3 74658302#2 444086387#1 444086387#0 -444086385#3 -444086385#2 -444086385#1 -444086385#0 -444086376#7 -444086376#6 -444086376#5 -444086376#4 -444086376#3"/>
    </person>
    <person id="ped7" type="ped_pedestrian" depart="10.12">
        <walk edges="445002332 -100101939#1" busStop="7996788918"/> <!-- 张府园 -->
        <ride busStop="7999205744" lines="1:0" intended="pt_subway_1:0.1" depart="664.00"/> <!-- 新街口 -->
        <walk edges="826049219 432530595 432528029 -155882951#0 390566343 524568467#1 265041450#1 265041497"/>
    </person>
    <person id="ped8" type="ped_pedestrian" depart="11.56">
        <walk edges="-61857817#1 -165397335#0 -165397335#1 -165397335#2 -524568465 -524568471#0 -524568471#1 -524568471#2 -524568471#3 -94327820#5 330606923"/>
    </person>
    <person id="ped9" type="ped_pedestrian" depart="13.01">
        <walk edges="857492843#2 857492843#3 857492842#0 141166589#2 141166589#1 141166589#0" busStop="8040230684"/> <!-- 大行宫 -->
        <ride busStop="8039975502" lines="2:1" intended="pt_subway_2:1.0" depart="1047.00"/> <!-- 上海路 -->
        <walk edges="-74658359#0 324480077 -100102119#1"/>
    </person>
    <person id="ped10" type="ped_pedestrian" depart="14.45">
        <walk edges="857492842#0 141166589#2 141166589#1 141166589#0" busStop="8040230684"/> <!-- 大行宫 -->
        <ride busStop="8039975502" lines="2:1" intended="pt_subway_2:1.0" depart="1047.00"/> <!-- 上海路 -->
        <walk edges="74658359#0 74658359#1 74658359#2"/>
    </person>
    <person id="ped11" type="ped_pedestrian" depart="15.90">
        <walk edges="-91364633#3 524568471#0 524568471#1 524568471#2 524568471#3 524568471#4 61862486#0 61862486#1 61862487#0 -324481079"/>
    </person>
    <person id="ped12" type="ped_pedestrian" depart="17.35">
        <walk edges="91997032#1 -91364878#0 779232503#1 100101940 146496700#3 146496700#2 146496700#1 324477595#2 324477595#1 -324478165 61877416#1 -89638689#4"/>
    </person>
    <person id="ped13" type="ped_pedestrian" depart="18.79">
        <walk edges="-223957413 165486156#5 165486156#4 -442891976#0 89637245#5 -224361836#1"/>
    </person>
    <person id="ped15" type="ped_pedestrian" depart="21.68">
        <walk edges="857492842#1 857492842#0 -141166589#2 96779084 256938736#4 256938736#5 106972918 -422206263#2 -422206263#1 422206263#0 826049217#2 826049217#1"/>
    </person>
    <person id="ped16" type="ped_pedestrian" depart="23.13">
        <walk edges="256938735#4 256938735#3 256938735#2 256938735#1 425461020#6 -425461020#5 -425461020#4 949327407"/>
    </person>
    <person id="ped17" type="ped_pedestrian" depart="24.57">
        <walk edges="-99978920#0 61857817#1 336014580 423517904#0 423517904#1 423517904#2 423517904#3 27811140"/>
    </person>
    <person id="ped18" type="ped_pedestrian" depart="26.02">
        <walk edges="860091725 860091724#0 854854151#0 -854780594#11 -854780594#8 -854780594#6 -854780594#5 -854780594#4 -854780594#3 -854780594#2 -854780594#1 -854780594#0 -161318989#5 -161318989#6 -161318989#7 256938735#6 256938735#5 256938735#4 256938735#3 256938735#2 256938735#1 425461020#6 425461020#5 425461020#4 425461020#3 425461020#2"/>
    </person>
    <person id="ped20" type="ped_pedestrian" depart="28.91">
        <walk edges="775888149#1 -775888149#0 -91828640#1 857565975 89637284#0 -99979624 -422206222#1 -422206222#0" busStop="8040230684"/> <!-- 大行宫 -->
        <ride busStop="8039975519" lines="2:1" intended="pt_subway_2:1.1" depart="1647.00"/> <!-- 新街口 -->
        <walk edges="826049220 159796724 -155883037#0 -155883037#1"/>
    </person>
    <person id="ped21" type="ped_pedestrian" depart="30.35">
        <walk edges="-61862487#0 -61862486#1 423376906 -61862480#1 -61862480#0 -74658359#0" busStop="8039975501"/> <!-- 上海路 -->
        <ride busStop="8040230683" lines="2:0" intended="pt_subway_2:0.1" depart="1342.00"/> <!-- 大行宫 -->
        <walk edges="422206222#0 -423287196#0 -89637244#0 -89637244#1 -89637244#2 -89637244#3 -89637244#4 -89637244#5 -442891976#0 -442891976#1 -442891976#2 -442891976#3 -89637182#6 -89637182#5 -89637182#4 -89637182#2 -89637182#1 -89637182#0"/>
    </person>
    <person id="ped22" type="ped_pedestrian" depart="31.80">
        <walk edges="-205422093#1 -89638687#2 -61877415#1 -61877415#2"/>
    </person>
    <person id="ped23" type="ped_pedestrian" depart="33.25">
        <walk edges="-233257351#0 -233257351#1 89637244#2 89637244#1 -89637244#0 -423287196#0 141166589#0" busStop="8040230684"/> <!-- 大行宫 -->
        <ride busStop="8039975519" lines="2:1" intended="pt_subway_2:1.0" depart="1047.00"/> <!-- 新街口 -->
        <walk edges="826049220 -432528029 -155882951#0 -155882951#1 -524568465 -524568471#0 524568471#1 -857726123#4 -857726123#3 -857726123#2"/>
    </person>
    <person id="ped24" type="ped_pedestrian" depart="34.69">
        <walk edges="442891976#3 -442891976#2 -442891976#1 -442891976#0 -89637244#5 -89637244#4 -96779087 -99979624 89637284#0 89637284#1 89637284#2 89637284#3 -949327405"/>
    </person>
    <person id="ped25" type="ped_pedestrian" depart="36.14">
        <walk edges="-96779087 -89637244#3 -89637244#2 -89637244#1 -89637244#0 423287196#0 -141166589#0 -141166607#0 -141166607#1 -141166607#2 -165397335#0 -524566662"/>
    </person>
    <person id="ped26" type="ped_pedestrian" depart="37.58">
        <walk edges="-854780595#9 -854780594#2 -854780594#1 -854781558 91364633#0"/>
    </person>
    <person id="ped27" type="ped_pedestrian" depart="39.03">
        <walk edges="444086387#0 444086385#3 444086385#2 444086385#1 -89638687#0 -89638687#1 89638687#2 -61877415#0 423287196#4"/>
    </person>
    <person id="ped28" type="ped_pedestrian" depart="40.47">
        <walk edges="-422848103 826049217#0"/>
    </person>
    <person id="ped29" type="ped_pedestrian" depart="41.92">
        <walk edges="-422206222#0 -422206263#3 -422206263#2 -422206263#1 422206263#0 826049217#2 826049217#1 826049217#0 155882973" busStop="7999205744"/> <!-- 新街口 -->
        <ride busStop="7999205742" lines="1:0" intended="pt_subway_1:0.2" depart="1355.00"/> <!-- 珠江路 -->
        <walk edges="192109155#2 192109155#1 192109155#0 -99979310#0"/>
    </person>
    <person id="ped30" type="ped_pedestrian" depart="43.36">
        <walk edges="99979311#1 161318989#3 161318989#5 161318989#6 161318989#7 -256938735#6 192109155#2" busStop="7999205743"/> <!-- 珠江路 -->
        <ride busStop="7999205745" lines="1:1" intended="pt_subway_1:1.1" depart="691.00"/> <!-- 新街口 -->
        <walk edges="-155882945 826049218" busStop="8039975518"/> <!-- 新街口 -->
        <ride busStop="8040230683" lines="2:0" intended="pt_subway_2:0.0" depart="917.00"/> <!-- 大行宫 -->
        <walk edges="422206222#0 -423287196#0 -89637244#0 -89637244#1 -89637244#2 -89637244#3 -89637244#4 89637244#5 442891976#0 -89637245#5 -89637245#4 -89637245#3 -89637245#2 -89637245#1 -89637245#0 444086376#3"/>
    </person>
    <person id="ped31" type="ped_pedestrian" depart="44.81">
        <walk edges="318055423#1 89637245#3 89637245#4 89637245#5 -442891976#0 -89637244#5 -89637244#4 -89637244#3 -89637244#2 -89637244#1 -89637244#0 -423287196#0 141166589#0" busStop="8040230684"/> <!-- 大行宫 -->
        <ride busStop="8039975519" lines="2:1" intended="pt_subway_2:1.0" depart="1047.00"/> <!-- 新街口 -->
        <walk edges="826049220 826049218 -155882945 -74658012#2 -74658012#1 100944613#1 100944617 61877416#2"/>
    </person>
    <person id="ped33" type="ped_pedestrian" depart="47.70">
        <walk edges="-61862488#0 -61862488#1 74658359#1 -74658359#0" busStop="8039975501"/> <!-- 上海路 -->
        <ride busStop="8039975518" lines="2:0" intended="pt_subway_2:0.0" depart="742.00"/> <!-- 新街口 -->
        <walk edges="826049218 -155882945" busStop="7999205745"/> <!-- 新街口 -->
        <ride busStop="7996788886" lines="1:1" intended="pt_subway_1:1.2" depart="1376.00"/> <!-- 张府园 -->
        <walk edges="147399823 -147399823"/>
    </person>
    <person id="ped34" type="ped_pedestrian" depart="49.15">
        <walk edges="-89637250#4 -147399827#5 92052927 100101975#2 92052928 74658012#2 155882973" busStop="7999205744"/> <!-- 新街口 -->
        <ride busStop="7999205742" lines="1:0" intended="pt_subway_1:0.1" depart="755.00"/> <!-- 珠江路 -->
        <walk edges="192109155#2 256938735#6 -161318989#7 -161318989#6 -161318989#5 -854780594#0 -854780594#1 -854780594#2 -854780594#3 -854780594#4 -854780594#5 -854780594#6 -854780596#1"/>
    </person>
    <person id="ped35" type="ped_pedestrian" depart="50.59">
        <walk edges="-524568471#0 -524568471#1 -524568471#2 -524568471#3 -94327820#5 94327820#6 -94327820#7 146496699#2 -324479874 106972916#1 -147608333#2 -147608333#1 -147608333#0 -779232503#2 -779232503#1 91364878#0"/>
    </person>
    <person id="ped36" type="ped_pedestrian" depart="52.04">
        <walk edges="863326649" busStop="8042375362"/> <!-- 常府街 -->
        <walk edges="165486154 423287196#5 -205422093#1 -89638687#2 -89638687#3 -89637250#1 -89637250#2 -89637250#3"/>
    </person>
    <person id="ped37" type="ped_pedestrian" depart="53.48">
        <walk edges="524568467#2 390566343 -155882951#0 432528029 432530595 826049219 155882945 74658012#2 92052928 100101975#1"/>
    </person>
    <person id="ped38" type="ped_pedestrian" depart="54.93">
        <walk edges="89637284#3 -89637282#3 -89637282#2 -89637282#1 -89637282#0 91828645#0 91828645#1 91205109#2 91205109#1 91205109#0 141166607#2 165397335#0"/>
    </person>
    <person id="ped39" type="ped_pedestrian" depart="56.37">
        <walk edges="-854780595#7 -854780595#8 854780595#9 -854780594#2 -854780594#1 -854780594#0 -161318989#5 -161318989#6 191934378#5 191934378#6 -27811151#3 -256938735#4 -256938735#3 -256938735#2 -256938735#1 -256938735#0 -425461020#5 -425461020#4 -425461020#3 -425461020#2 -425461020#1 -775888149#1"/>
    </person>
    <person id="ped40" type="ped_pedestrian" depart="57.82">
        <walk edges="318198193 442891976#2 442891976#1 -442891976#0 -89637244#5 -89637244#4 -89637244#3 -89637244#2 -89637244#1 -89637244#0 -423287196#0 141166589#0" busStop="8040230684"/> <!-- 大行宫 -->
        <ride busStop="8039975519" lines="2:1" intended="pt_subway_2:1.0" depart="1047.00"/> <!-- 新街口 -->
        <walk edges="826049220 826049218 155882945" busStop="7999205744"/> <!-- 新街口 -->
        <ride busStop="7999205742" lines="1:0" intended="pt_subway_1:0.2" depart="1355.00"/> <!-- 珠江路 -->
        <walk edges="192109155#2 256938735#6 -161318989#7 -161318989#6 -161318989#5 -854780594#0 -854780594#1 -854780594#2 -854780594#3 -854780594#4 -854780594#5 -854780594#6 854854158 854854163#1 854854159 -854780595#1"/>
    </person>
    <person id="ped41" type="ped_pedestrian" depart="59.26">
        <walk edges="324477968 -324477595#2 146496700#0 61879252#2 61879252#1 61879252#0 -155883037#3 -155883037#2 -155883037#1 -155883037#0 -159796724 826049218" busStop="8039975518"/> <!-- 新街口 -->
        <ride busStop="8040230683" lines="2:0" intended="pt_subway_2:0.0" depart="917.00"/> <!-- 大行宫 -->
        <walk edges="422206222#0 -423287196#0 -89637244#0 -89637244#1 -89637244#2 -89637244#3 -89637244#4 -89637244#5 -442891976#0 89637245#5 89637245#4 89637245#3"/>
    </person>
    <person id="ped42" type="ped_pedestrian" depart="60.71">
        <walk edges="100102121 -147608333#0 -147608333#1 -147608333#2 -146496701" busStop="8039975501"/> <!-- 上海路 -->
        <ride busStop="8039975518" lines="2:0" intended="pt_subway_2:0.0" depart="742.00"/> <!-- 新街口 -->
        <walk edges="826049218 826049219 422848103 -826049217#0 -826049217#1 -826049217#2 -61857817#0"/>
    </person>
    <person id="ped43" type="ped_pedestrian" depart="62.15">
        <walk edges="99979574#1 775888147#1 89637284#3 89637284#2 89637284#1 89637284#0 -99979624 -96779087 -233258650 -272565361 -272565360 223942131#3 223942098"/>
    </person>
    <person id="ped44" type="ped_pedestrian" depart="63.60">
        <walk edges="-223942251#1 89637250#3 89637250#4 147399827#5 92052927 100101975#2 92052928 -74658012#2 155882991 -155883037#0 -155883037#1 -155883037#2"/>
    </person>
    <person id="ped46" type="ped_pedestrian" depart="66.49">
        <walk edges="854857368#0 854857368#1 854857368#2 855952289 -854780594#8 -854780594#6 -854780594#5 -854780594#4 -854780594#3 -854780594#2 -854780594#1 -854781558 91364633#1 91364633#2 91364633#3 524568467#0 524568467#1 524568467#2 524568467#3 524568467#4 61879252#0 61879252#1 61879252#2 146496700#0 146496700#1 146496700#2 146496700#3"/>
    </person>
    <person id="ped47" type="ped_pedestrian" depart="67.94">
        <walk edges="-165486156#6 422206222#2 -99979624 -318198216#1 -318198216#2 -318198216#3 -141166607#0 -141166607#1 -141166607#2 -165397335#0 89545382#1 -99979311#0"/>
    </person>
    <person id="ped48" type="ped_pedestrian" depart="69.38">
        <walk edges="99979563#0 91828639#0 943472402 91205109#2 91205109#1 91205109#0 99978916#1 99978916#0 -422206263#0 -826049217#2 -826049217#1 -826049217#0 -422848103 432530595 826049220" busStop="8039975519"/> <!-- 新街口 -->
        <ride busStop="8039975478" lines="2:1" intended="pt_subway_2:1.1" depart="1717.00"/> <!-- 汉中门 -->
        <walk edges="-256520637#1 -256520637#0 91364877#3 253432192#1 253432192#0"/>
    </person>
    <person id="ped51" type="ped_pedestrian" depart="73.72">
        <walk edges="61877415#3 147399827#3 147399827#4 147399827#5 147399827#6 61857817#0 61857817#1 336014580 423517904#0 423517904#1 27811151#0 27811151#1 27811151#2 27811151#3 256938735#5"/>
    </person>
    <person id="ped52" type="ped_pedestrian" depart="75.16">
        <walk edges="-854780595#9 -854780594#2 -854780594#1 -854780594#0 -161318989#5 -161318989#6 -161318989#7 256938735#6 192109155#2" busStop="7999205743"/> <!-- 珠江路 -->
        <ride busStop="7999205745" lines="1:1" intended="pt_subway_1:1.1" depart="691.00"/> <!-- 新街口 -->
        <walk edges="-155882945 826049218" busStop="8039975518"/> <!-- 新街口 -->
        <ride busStop="8040230683" lines="2:0" intended="pt_subway_2:0.0" depart="917.00"/> <!-- 大行宫 -->
        <walk edges="422206222#0 -423287196#0 -89637244#0 -89637244#1 -89637244#2 -89637244#3 -89637244#4 322659427#2 322659427#1 322659427#0 89637246 444086376#4"/>
    </person>
    <person id="ped53" type="ped_pedestrian" depart="76.61">
        <walk edges="-256938735#4 256938735#5 192109155#2" busStop="7999205743"/> <!-- 珠江路 -->
        <ride busStop="7999205745" lines="1:1" intended="pt_subway_1:1.1" depart="691.00"/> <!-- 新街口 -->
        <walk edges="-155882945 155882945"/>
    </person>
    <person id="ped54" type="ped_pedestrian" depart="78.06">
        <walk edges="161318989#5 161318989#3 161318989#2 161318989#1 161318989#0 155882951#1 -155882951#0 -432528029 826049220" busStop="8039975519"/> <!-- 新街口 -->
        <ride busStop="8039975478" lines="2:1" intended="pt_subway_2:1.0" depart="1117.00"/> <!-- 汉中门 -->
        <walk edges="-256520637#1 -256520637#0 91364877#3 253432192#1 91996897#0"/>
    </person>
    <person id="ped55" type="ped_pedestrian" depart="79.50">
        <walk edges="863304017" busStop="8042210650"/> <!-- 浮桥 -->
        <walk edges="-61814416#1 425461020#6 256938735#1 256938735#2 256938735#3 256938735#4 256938735#5 256938735#6 -161318989#7 -161318989#6 -161318989#5 -854780594#0 -854780594#1 -854780594#2 -854780594#3 -854780594#4 -854780594#5 -854780594#6 854854158 854854163#1 854854159 -854780595#1 -854780595#2"/>
    </person>
    <person id="ped56" type="ped_pedestrian" depart="80.95">
        <walk edges="192946582#1 -192946582#0 94327820#6 -94327820#5 -524568471#3 -524568471#2 -524568471#1 524568471#0 91364633#3 91364633#2 91364633#1 91364633#0 -99979311#1 -99979311#0 89545382#0 27811151#0 -423517904#2"/>
    </person>
    <person id="ped58" type="ped_pedestrian" depart="83.84">
        <walk edges="-89637244#0 -89637244#1 -89637244#2 -89637244#3 -89637244#4 -89637244#5 -442891976#0 -442891976#1 -442891976#2 -442891976#3 -89637182#6 -89637182#5 -89637182#4 -89637182#2 -89637182#1 89637182#0 444086376#1"/>
    </person>
    <person id="ped59" type="ped_pedestrian" depart="85.28">
        <walk edges="423287196#3 423287196#2 423287196#1 423287196#0 141166589#0" busStop="8040230684"/> <!-- 大行宫 -->
        <ride busStop="8039975502" lines="2:1" intended="pt_subway_2:1.0" depart="1047.00"/> <!-- 上海路 -->
        <walk edges="-74658359#0 -146496699#3 -324479874"/>
    </person>
    <person id="ped60" type="ped_pedestrian" depart="86.73">
        <walk edges="854854154#0 854854154#1 -854780594#6 -854780594#5 -854780594#4 -854780594#3 -854780594#2 -854780594#1 -854780594#0 -161318989#5 -99979310#1 99979310#0 27811151#1 27811151#0 -423517904#2 91828644 91828639#0 91828639#1 256938736#1"/>
    </person>
    <person id="ped61" type="ped_pedestrian" depart="88.17">
        <walk edges="854854167#1 -854780594#5 -854780594#4 -854780594#3 -854780594#2 -854780594#1 -854780594#0 -161318989#5 -161318989#6 -161318989#7 256938735#6 192109155#2" busStop="7999205743"/> <!-- 珠江路 -->
        <ride busStop="7999205745" lines="1:1" intended="pt_subway_1:1.1" depart="691.00"/> <!-- 新街口 -->
        <walk edges="-155882945 826049218 826049220" busStop="8039975519"/> <!-- 新街口 -->
        <ride busStop="8039975478" lines="2:1" intended="pt_subway_2:1.0" depart="1117.00"/> <!-- 汉中门 -->
        <walk edges="-256520637#1 -256520637#0 91364877#3 253432192#2"/>
    </person>
    <person id="ped62" type="ped_pedestrian" depart="89.62">
        <walk edges="-100101934#0 89638686#0 -89638684#0 -89638684#1 -89638684#2"/>
    </person>
    <person id="ped63" type="ped_pedestrian" depart="91.06">
        <walk edges="-141166589#3 -141166589#2 -141166589#1 141166589#0" busStop="8040230684"/> <!-- 大行宫 -->
        <ride busStop="8039975519" lines="2:1" intended="pt_subway_2:1.0" depart="1047.00"/> <!-- 新街口 -->
        <walk edges="826049220 826049218 -155882945 -74658012#2 -74658012#1 100944613#1 100944617 89638689#4 89638689#3 89638689#2 89638689#1 89638689#0"/>
    </person>
    <person id="ped64" type="ped_pedestrian" depart="92.51">
        <walk edges="89545382#1 89545382#0 27811151#0 89637281 91828645#1 91828645#0 -141166589#3 857492842#0 857492843#3 857492843#2 860586088"/>
    </person>
    <person id="ped65" type="ped_pedestrian" depart="93.96">
        <walk edges="-89637245#5 442891976#0 89637244#5 89637244#4 233258650 -233257376 -233257351#0 -223942131#1 233257334 -205422092#2 -205422092#1 -205422093#0 -423287196#5 -165486154"/>
    </person>
    <person id="ped66" type="ped_pedestrian" depart="95.40">
        <walk edges="89545382#1 89545382#0 27811151#0 89637281 91828645#1 91828645#0 -89637282#0 -89637282#1 -89637282#2 -89637282#3 91828640#0"/>
    </person>
    <person id="ped67" type="ped_pedestrian" depart="96.85">
        <walk edges="-223942131#2 -233257351#0 -233257351#1 89637244#2 89637244#1 -89637244#0 -423287196#0 141166589#0" busStop="8040230684"/> <!-- 大行宫 -->
        <ride busStop="8039975519" lines="2:1" intended="pt_subway_2:1.0" depart="1047.00"/> <!-- 新街口 -->
        <walk edges="826049220 826049218 155882945" busStop="7999205744"/> <!-- 新街口 -->
        <ride busStop="7999205742" lines="1:0" intended="pt_subway_1:0.2" depart="1355.00"/> <!-- 珠江路 -->
        <walk edges="192109155#2 192109155#1 191934378#6"/>
    </person>
    <person id="ped68" type="ped_pedestrian" depart="98.29">
        <walk edges="-192946034#1 -192946034#0 -192946582#0 94327820#6 -94327820#5 -524568471#3 -524568471#2 -524568471#1 524568471#0 91364633#3 91364633#2 91364633#1 -854781558 -854780594#1 -854780594#2 -854780594#3 -854780594#4 -854780594#5 -854780594#6 -854780594#8 -854780594#11 854854151#0 854854151#1 854854152#1"/>
    </person>
    <person id="ped69" type="ped_pedestrian" depart="99.74">
        <walk edges="854854156#1 854854154#1 -854780594#6 -854780594#5 -854780594#4 -854780594#3 -854780594#2 -854780594#1 -854780594#0 -161318989#5 -161318989#6 -161318989#7 256938735#6 192109155#2" busStop="7999205743"/> <!-- 珠江路 -->
        <ride busStop="7999205745" lines="1:1" intended="pt_subway_1:1.1" depart="691.00"/> <!-- 新街口 -->
        <walk edges="-155882945 826049218" busStop="8039975518"/> <!-- 新街口 -->
        <ride busStop="8040230683" lines="2:0" intended="pt_subway_2:0.0" depart="917.00"/> <!-- 大行宫 -->
        <walk edges="422206222#0 -423287196#0 -89637244#0 -89637244#1 -89637244#2 -89637244#3 -89637244#4 -89637244#5 -442891976#0 -442891976#1 -442891976#2 -318198193"/>
    </person>
    <person id="ped70" type="ped_pedestrian" depart="101.18">
        <walk edges="188614443#1 188614439#0 188614442 -161318989#5 -161318989#6 -161318989#7 256938735#6 256938735#5 256938735#4 256938735#3 256938735#2 256938735#1 425461020#6 425461020#5 275865263 275865256#0"/>
    </person>
    <person id="ped71" type="ped_pedestrian" depart="102.63">
        <walk edges="-854780595#7 -854780595#8 854780595#9 -854780594#2 -854780594#1 -854780594#0 -161318989#5 -161318989#6 -161318989#7 256938735#6 256938735#5 256938735#4 256938735#3 256938735#2 256938735#1 425461020#6 -61814416#1" busStop="8042210651"/> <!-- 浮桥 -->
        <walk edges="863304014#0"/>
    </person>
    <person id="ped72" type="ped_pedestrian" depart="104.07">
        <walk edges="146496700#4 146496700#3 146496700#2 146496700#1 146496700#0 61879252#2 61879252#1 61879252#0 524568467#4 -100102162#0 390566342 -390566340#1 265041497 265041450#0 -524568471#1"/>
    </person>
    <person id="ped73" type="ped_pedestrian" depart="105.52">
        <walk edges="256938736#1 91828645#0 -141166589#3 -141166589#2 -141166589#1 141166589#0" busStop="8040230684"/> <!-- 大行宫 -->
        <ride busStop="8039975519" lines="2:1" intended="pt_subway_2:1.0" depart="1047.00"/> <!-- 新街口 -->
        <walk edges="826049220 432530595 422848103 826049217#0 826049217#1"/>
    </person>
    <person id="ped74" type="ped_pedestrian" depart="106.96">
        <walk edges="-444086376#6 -444086376#5 -444086376#4 -444086376#3 -444086376#2 -444086376#1 -89637249#3"/>
    </person>
    <person id="ped75" type="ped_pedestrian" depart="108.41">
        <walk edges="99979561 99979559#1 -99979556#0 256938735#2 256938735#3 256938735#4 256938735#5 192109155#2" busStop="7999205743"/> <!-- 珠江路 -->
        <ride busStop="7996788886" lines="1:1" intended="pt_subway_1:1.2" depart="1291.00"/> <!-- 张府园 -->
        <walk edges="-100101939#1 445002332"/>
    </person>
    <person id="ped76" type="ped_pedestrian" depart="109.86">
        <walk edges="155882963 155883037#1 155883037#0 159796724 826049218" busStop="8039975518"/> <!-- 新街口 -->
        <ride busStop="8040230683" lines="2:0" intended="pt_subway_2:0.0" depart="917.00"/> <!-- 大行宫 -->
        <walk edges="422206222#0 422206222#1 422206222#2 -165486156#6 165486156#5 223957412"/>
    </person>
    <person id="ped77" type="ped_pedestrian" depart="111.30">
        <walk edges="-27811140 256938735#4 256938735#5 256938735#6 -161318989#7 -161318989#6 188614447#3 188614447#2 188614447#1 188614447#0 94327820#1 -94327820#0 -61862480#4"/>
    </person>
    <person id="ped78" type="ped_pedestrian" depart="112.75">
        <walk edges="-91364633#0 -91364633#1 91364633#2 91364633#3 524568471#0 524568471#1 524568471#2 524568471#3 524568471#4 61862486#0 61862486#1 61862488#0 61862488#1 74658359#2 324480439"/>
    </person>
    <person id="ped79" type="ped_pedestrian" depart="114.19">
        <walk edges="-61862488#1 74658359#1 -74658359#0" busStop="8039975501"/> <!-- 上海路 -->
        <ride busStop="8039975518" lines="2:0" intended="pt_subway_2:0.0" depart="742.00"/> <!-- 新街口 -->
        <walk edges="826049218 826049219 422848103 -826049217#0 -826049217#1 -826049217#2 -61857817#0 -61857817#1"/>
    </person>
    <person id="ped80" type="ped_pedestrian" depart="115.64">
        <walk edges="-192946035#1 -192946034#0 -192946582#1 61862480#0 146496701 147608333#2 147608333#1 442418469#0 442418469#1"/>
    </person>
    <person id="ped81" type="ped_pedestrian" depart="117.08">
        <walk edges="-61862487#1 61862487#0 61862486#1 61862486#0 524568471#4 524568471#3 524568471#2 524568471#1 -524568471#0 -524568465 -155882951#1 -155882951#0 -432528029 826049220 826049218" busStop="8039975518"/> <!-- 新街口 -->
        <ride busStop="8040230683" lines="2:0" intended="pt_subway_2:0.2" depart="2117.00"/> <!-- 大行宫 -->
        <walk edges="422206222#0 422206263#3 89638687#6 -89638687#5 -89638687#4 89637250#1 89637250#2"/>
    </person>
    <person id="ped83" type="ped_pedestrian" depart="119.97">
        <walk edges="-74658302#0" busStop="7996788918"/> <!-- 张府园 -->
        <ride busStop="7999205744" lines="1:0" intended="pt_subway_1:0.1" depart="664.00"/> <!-- 新街口 -->
        <walk edges="155882945 826049218 826049220" busStop="8039975519"/> <!-- 新街口 -->
        <ride busStop="8039975502" lines="2:1" intended="pt_subway_2:1.0" depart="1117.00"/> <!-- 上海路 -->
        <walk edges="74658359#0 61862480#0 61862480#1 61862480#2"/>
    </person>
    <person id="ped84" type="ped_pedestrian" depart="121.42">
        <walk edges="-524568471#4 61862480#2 61862480#1 61862480#0 -74658359#0" busStop="8039975501"/> <!-- 上海路 -->
        <ride busStop="8040230683" lines="2:0" intended="pt_subway_2:0.0" depart="742.00"/> <!-- 大行宫 -->
        <walk edges="422206222#0 -423287196#0 -89637244#0 -89637244#1 -89637244#2 -89637244#3 -89637244#4 -89637244#5 -442891976#0 89637245#5 89637245#4 89637245#3 318055423#1 -318345279"/>
    </person>
    <person id="ped85" type="ped_pedestrian" depart="122.86">
        <walk edges="91205109#2 91205109#1 91205109#0 141166607#1 -141166607#0 -141166589#0 423287196#0 -423287196#1 -423287196#2 322659428#4 322659428#3 322659428#1"/>
    </person>
    <person id="ped86" type="ped_pedestrian" depart="124.31">
        <walk edges="188614441#1 188614447#2 -96779088#0 188614440 188614443#1 188614439#0 188614442 -854780594#0 -854780594#1 -854780594#2 -854780594#3 -854780594#4 854854170#0"/>
    </person>
    <person id="ped87" type="ped_pedestrian" depart="125.76">
        <walk edges="857492843#0 -89637282#2 -89637282#1 857492842#1 857492842#0 141166589#2 141166589#1 141166589#0" busStop="8040230684"/> <!-- 大行宫 -->
        <ride busStop="8039975502" lines="2:1" intended="pt_subway_2:1.0" depart="1047.00"/> <!-- 上海路 -->
        <walk edges="-74658359#0 -146496701 -147608333#2 147608333#1 -442418469#0 -442418469#1"/>
    </person>
    <person id="ped88" type="ped_pedestrian" depart="127.20">
        <walk edges="-224361836#1 89637245#4 89637245#3 89637243#0 89637243#1 322659428#0 322659428#1 322659428#3 322659428#4 89637250#0 89637250#1 89637250#2 89637250#3 89637250#4 147399827#5 147399827#6"/>
    </person>
    <person id="ped89" type="ped_pedestrian" depart="128.65">
        <walk edges="146496700#5 146496700#4 146496700#3 146496700#2 146496700#1 146496700#0 61879252#2 61879252#1 61879252#0 -155883037#3 -155883037#2 -155883037#1 -155883037#0 -159796724 826049218" busStop="8039975518"/> <!-- 新街口 -->
        <ride busStop="8040230683" lines="2:0" intended="pt_subway_2:0.1" depart="1517.00"/> <!-- 大行宫 -->
        <walk edges="422206222#0 422206222#1 422206222#2 165486156#6"/>
    </person>
    <person id="ped90" type="ped_pedestrian" depart="130.09">
        <walk edges="826049217#0 155882977#0 155882977#1 155882951#0 -155882951#1 61862485"/>
    </person>
    <person id="ped91" type="ped_pedestrian" depart="131.54">