<?xml version="1.0" encoding="UTF-8"?>
<!-- generated on 2021-07-12 16:46:04.008839 by $Id$ v1_9_2+0000-4206cfae24
  options: -n osm.net.xml <doubleminus>fringe-factor 4 -o osm22.pedestrian.trips.xml <doubleminus>seed 42 -e 3600 -r osm22.pedestrian.rou.xml -p 1.445465 <doubleminus>vehicle-class pedestrian <doubleminus>persontrips <doubleminus>prefix ped <doubleminus>additional-files osm_stops.add.xml,osm_pt22.rou.xml <doubleminus>trip-attributes modes="public"
-->
<routes xmlns:xsi="http://www.w3.org/2001/XMLSchema-instance" xsi:noNamespaceSchemaLocation="http://sumo.dlr.de/xsd/routes_file.xsd">
    <vType id="ped_pedestrian" vClass="pedestrian"/>
    <person id="ped0" depart="0.00" type="ped_pedestrian">
        <personTrip from="444086376#2" to="-146496699#3" modes="public"/>
    </person>
    <person id="ped1" depart="1.45" type="ped_pedestrian">
        <personTrip from="-857726119" to="-61862480#2" modes="public"/>
    </person>
    <person id="ped2" depart="2.89" type="ped_pedestrian">
        <personTrip from="854780594#12" to="61862487#1" modes="public"/>
    </person>
    <person id="ped3" depart="4.34" type="ped_pedestrian">
        <personTrip from="89637244#3" to="-223942131#3" modes="public"/>
    </person>
    <person id="ped4" depart="5.78" type="ped_pedestrian">
        <personTrip from="146496700#3" to="-146496700#4" modes="public"/>
    </person>
    <person id="ped5" depart="7.23" type="ped_pedestrian">
        <personTrip from="-61857815" to="205422093#0" modes="public"/>
    </person>
    <person id="ped6" depart="8.67" type="ped_pedestrian">
        <personTrip from="-146496700#0" to="-444086376#3" modes="public"/>
    </person>
    <person id="ped7" depart="10.12" type="ped_pedestrian">
        <personTrip from="445002332" to="265041497" modes="public"/>
    </person>
    <person id="ped8" depart="11.56" type="ped_pedestrian">
        <personTrip from="-61857817#1" to="330606923" modes="public"/>
    </person>
    <person id="ped9" depart="13.01" type="ped_pedestrian">
        <personTrip from="857492843#2" to="-100102119#1" modes="public"/>
    </person>
    <person id="ped10" depart="14.45" type="ped_pedestrian">
        <personTrip from="857492842#0" to="74658359#2" modes="public"/>
    </person>
    <person id="ped11" depart="15.90" type="ped_pedestrian">
        <personTrip from="-91364633#3" to="-324481079" modes="public"/>
    </person>
    <person id="ped12" depart="17.35" type="ped_pedestrian">
        <personTrip from="91997032#1" to="-89638689#4" modes="public"/>
    </person>
    <person id="ped13" depart="18.79" type="ped_pedestrian">
        <personTrip from="-223957413" to="-224361836#1" modes="public"/>
    </person>
    <person id="ped14" depart="20.24" type="ped_pedestrian">
        <personTrip from="860727750#0" to="422206263#2" modes="public"/>
    </person>
    <person id="ped15" depart="21.68" type="ped_pedestrian">
        <personTrip from="857492842#1" to="826049217#1" modes="public"/>
    </person>
    <person id="ped16" depart="23.13" type="ped_pedestrian">
        <personTrip from="256938735#4" to="949327407" modes="public"/>
    </person>
    <person id="ped17" depart="24.57" type="ped_pedestrian">
        <personTrip from="-99978920#0" to="27811140" modes="public"/>
    </person>
    <person id="ped18" depart="26.02" type="ped_pedestrian">
        <personTrip from="860091725" to="425461020#2" modes="public"/>
    </person>
    <person id="ped19" depart="27.46" type="ped_pedestrian">
        <personTrip from="860727764" to="323623756" modes="public"/>
    </person>
    <person id="ped20" depart="28.91" type="ped_pedestrian">
        <personTrip from="775888149#1" to="-155883037#1" modes="public"/>
    </person>
    <person id="ped21" depart="30.35" type="ped_pedestrian">
        <personTrip from="-61862487#0" to="-89637182#0" modes="public"/>
    </person>
    <person id="ped22" depart="31.80" type="ped_pedestrian">
        <personTrip from="-205422093#1" to="-61877415#2" modes="public"/>
    </person>
    <person id="ped23" depart="33.25" type="ped_pedestrian">
        <personTrip from="-233257351#0" to="-857726123#2" modes="public"/>
    </person>
    <person id="ped24" depart="34.69" type="ped_pedestrian">
        <personTrip from="442891976#3" to="-949327405" modes="public"/>
    </person>
    <person id="ped25" depart="36.14" type="ped_pedestrian">
        <personTrip from="-96779087" to="-524566662" modes="public"/>
    </person>
    <person id="ped26" depart="37.58" type="ped_pedestrian">
        <personTrip from="-854780595#9" to="91364633#0" modes="public"/>
    </person>
    <person id="ped27" depart="39.03" type="ped_pedestrian">
        <personTrip from="444086387#0" to="423287196#4" modes="public"/>
    </person>
    <person id="ped28" depart="40.47" type="ped_pedestrian">
        <personTrip from="-422848103" to="826049217#0" modes="public"/>
    </person>
    <person id="ped29" depart="41.92" type="ped_pedestrian">
        <personTrip from="-422206222#0" to="-99979310#0" modes="public"/>
    </person>
    <person id="ped30" depart="43.36" type="ped_pedestrian">
        <personTrip from="99979311#1" to="444086376#3" modes="public"/>
    </person>
    <person id="ped31" depart="44.81" type="ped_pedestrian">
        <personTrip from="318055423#1" to="61877416#2" modes="public"/>
    </person>
    <person id="ped32" depart="46.25" type="ped_pedestrian">
        <personTrip from="860727744" to="854854165" modes="public"/>
    </person>
    <person id="ped33" depart="47.70" type="ped_pedestrian">
        <personTrip from="-61862488#0" to="-147399823" modes="public"/>
    </person>
    <person id="ped34" depart="49.15" type="ped_pedestrian">
        <personTrip from="-89637250#4" to="-854780596#1" modes="public"/>
    </person>
    <person id="ped35" depart="50.59" type="ped_pedestrian">
        <personTrip from="-524568471#0" to="91364878#0" modes="public"/>
    </person>
    <person id="ped36" depart="52.04" type="ped_pedestrian">
        <personTrip from="863326649" to="-89637250#3" modes="public"/>
    </person>
    <person id="ped37" depart="53.48" type="ped_pedestrian">
        <personTrip from="524568467#2" to="100101975#1" modes="public"/>
    </person>
    <person id="ped38" depart="54.93" type="ped_pedestrian">
        <personTrip from="89637284#3" to="165397335#0" modes="public"/>
    </person>
    <person id="ped39" depart="56.37" type="ped_pedestrian">
        <personTrip from="-854780595#7" to="-775888149#1" modes="public"/>
    </person>
    <person id="ped40" depart="57.82" type="ped_pedestrian">
        <personTrip from="318198193" to="-854780595#1" modes="public"/>
    </person>
    <person id="ped41" depart="59.26" type="ped_pedestrian">
        <personTrip from="324477968" to="89637245#3" modes="public"/>
    </person>
    <person id="ped42" depart="60.71" type="ped_pedestrian">
        <personTrip from="100102121" to="-61857817#0" modes="public"/>
    </person>
    <person id="ped43" depart="62.15" type="ped_pedestrian">
        <personTrip from="99979574#1" to="223942098" modes="public"/>
    </person>
    <person id="ped44" depart="63.60" type="ped_pedestrian">
        <personTrip from="-223942251#1" to="-155883037#2" modes="public"/>
    </person>
    <person id="ped45" depart="65.05" type="ped_pedestrian">
        <personTrip from="-256938735#2" to="435442006" modes="public"/>
    </person>
    <person id="ped46" depart="66.49" type="ped_pedestrian">
        <personTrip from="854857368#0" to="146496700#3" modes="public"/>
    </person>
    <person id="ped47" depart="67.94" type="ped_pedestrian">
        <personTrip from="-165486156#6" to="-99979311#0" modes="public"/>
    </person>
    <person id="ped48" depart="69.38" type="ped_pedestrian">
        <personTrip from="99979563#0" to="253432192#0" modes="public"/>
    </person>
    <person id="ped49" depart="70.83" type="ped_pedestrian">
        <personTrip from="949327406#0" to="860727763" modes="public"/>
    </person>
    <person id="ped50" depart="72.27" type="ped_pedestrian">
        <personTrip from="-100944613#0" to="792235766#3" modes="public"/>
    </person>
    <person id="ped51" depart="73.72" type="ped_pedestrian">
        <personTrip from="61877415#3" to="256938735#5" modes="public"/>
    </person>
    <person id="ped52" depart="75.16" type="ped_pedestrian">
        <personTrip from="-854780595#9" to="444086376#4" modes="public"/>
    </person>
    <person id="ped53" depart="76.61" type="ped_pedestrian">
        <personTrip from="-256938735#4" to="155882945" modes="public"/>
    </person>
    <person id="ped54" depart="78.06" type="ped_pedestrian">
        <personTrip from="161318989#5" to="91996897#0" modes="public"/>
    </person>
    <person id="ped55" depart="79.50" type="ped_pedestrian">
        <personTrip from="863304017" to="-854780595#2" modes="public"/>
    </person>
    <person id="ped56" depart="80.95" type="ped_pedestrian">
        <personTrip from="192946582#1" to="-423517904#2" modes="public"/>
    </person>
    <person id="ped57" depart="82.39" type="ped_pedestrian">
        <personTrip from="89637284#0" to="863066494" modes="public"/>
    </person>
    <person id="ped58" depart="83.84" type="ped_pedestrian">
        <personTrip from="-89637244#0" to="444086376#1" modes="public"/>
    </person>
    <person id="ped59" depart="85.28" type="ped_pedestrian">
        <personTrip from="423287196#3" to="-324479874" modes="public"/>
    </person>
    <person id="ped60" depart="86.73" type="ped_pedestrian">
        <personTrip from="854854154#0" to="256938736#1" modes="public"/>
    </person>
    <person id="ped61" depart="88.17" type="ped_pedestrian">
        <personTrip from="854854167#1" to="253432192#2" modes="public"/>
    </person>
    <person id="ped62" depart="89.62" type="ped_pedestrian">
        <personTrip from="-100101934#0" to="-89638684#2" modes="public"/>
    </person>
    <person id="ped63" depart="91.06" type="ped_pedestrian">
        <personTrip from="-141166589#3" to="89638689#0" modes="public"/>
    </person>
    <person id="ped64" depart="92.51" type="ped_pedestrian">
        <personTrip from="89545382#1" to="860586088" modes="public"/>
    </person>
    <person id="ped65" depart="93.96" type="ped_pedestrian">
        <personTrip from="-89637245#5" to="-165486154" modes="public"/>
    </person>
    <person id="ped66" depart="95.40" type="ped_pedestrian">
        <personTrip from="89545382#1" to="91828640#0" modes="public"/>
    </person>
    <person id="ped67" depart="96.85" type="ped_pedestrian">
        <personTrip from="-223942131#2" to="191934378#6" modes="public"/>
    </person>
    <person id="ped68" depart="98.29" type="ped_pedestrian">
        <personTrip from="-192946034#1" to="854854152#1" modes="public"/>
    </person>
    <person id="ped69" depart="99.74" type="ped_pedestrian">
        <personTrip from="854854156#1" to="-318198193" modes="public"/>
    </person>
    <person id="ped70" depart="101.18" type="ped_pedestrian">
        <personTrip from="188614443#1" to="275865256#0" modes="public"/>
    </person>
    <person id="ped71" depart="102.63" type="ped_pedestrian">
        <personTrip from="-854780595#7" to="863304014#0" modes="public"/>
    </person>
    <person id="ped72" depart="104.07" type="ped_pedestrian">
        <personTrip from="146496700#4" to="-524568471#1" modes="public"/>
    </person>
    <person id="ped73" depart="105.52" type="ped_pedestrian">
        <personTrip from="256938736#1" to="826049217#1" modes="public"/>
    </person>
    <person id="ped74" depart="106.96" type="ped_pedestrian">
        <personTrip from="-444086376#6" to="-89637249#3" modes="public"/>
    </person>
    <person id="ped75" depart="108.41" type="ped_pedestrian">
        <personTrip from="99979561" to="445002332" modes="public"/>
    </person>
    <person id="ped76" depart="109.86" type="ped_pedestrian">
        <personTrip from="155882963" to="223957412" modes="public"/>
    </person>
    <person id="ped77" depart="111.30" type="ped_pedestrian">
        <personTrip from="-27811140" to="-61862480#4" modes="public"/>
    </person>
    <person id="ped78" depart="112.75" type="ped_pedestrian">
        <personTrip from="-91364633#0" to="324480439" modes="public"/>
    </person>
    <person id="ped79" depart="114.19" type="ped_pedestrian">
        <personTrip from="-61862488#1" to="-61857817#1" modes="public"/>
    </person>
    <person id="ped80" depart="115.64" type="ped_pedestrian">
        <personTrip from="-192946035#1" to="442418469#1" modes="public"/>
    </person>
    <person id="ped81" depart="117.08" type="ped_pedestrian">
        <personTrip from="-61862487#1" to="89637250#2" modes="public"/>
    </person>
    <person id="ped82" depart="118.53" type="ped_pedestrian">
        <personTrip from="860727761#2" to="-192946035#1" modes="public"/>
    </person>
    <person id="ped83" depart="119.97" type="ped_pedestrian">
        <personTrip from="-74658302#0" to="61862480#2" modes="public"/>
    </person>
    <person id="ped84" depart="121.42" type="ped_pedestrian">
        <personTrip from="-524568471#4" to="-318345279" modes="public"/>
    </person>
    <person id="ped85" depart="122.86" type="ped_pedestrian">
        <personTrip from="91205109#2" to="322659428#1" modes="public"/>
    </person>
    <person id="ped86" depart="124.31" type="ped_pedestrian">
        <personTrip from="188614441#1" to="854854170#0" modes="public"/>
    </person>
    <person id="ped87" depart="125.76" type="ped_pedestrian">
        <personTrip from="857492843#0" to="-442418469#1" modes="public"/>
    </person>
    <person id="ped88" depart="127.20" type="ped_pedestrian">
        <personTrip from="-224361836#1" to="147399827#6" modes="public"/>
    </person>
    <person id="ped89" depart="128.65" type="ped_pedestrian">
        <personTrip from="146496700#5" to="165486156#6" modes="public"/>
    </person>
    <person id="ped90" depart="130.09" type="ped_pedestrian">
        <personTrip from="826049217#0" to="61862485" modes="public"/>
    </person>
    <person id="ped91" depart="131.54" type="ped_pedestrian">
        <personTrip from="99978916#1" to="-224361838" modes="public"/>
    </person>
    <person id="ped92" depart="132.98" type="ped_pedestrian">
        <personTrip from="100944613#0" to="-91364633#1" modes="public"/>
    </person>
    <person id="ped93" depart="134.43" type="ped_pedestrian">
        <personTrip from="860727764" to="-779232503#1" modes="public"/>
    </person>
    <person id="ped94" depart="135.87" type="ped_pedestrian">
        <personTrip from="-442418469#1" to="159695206#1" modes="public"/>
    </person>
    <person id="ped95" depart="137.32" type="ped_pedestrian">
        <personTrip from="146496700#3" to="-857726123#3" modes="public"/>
    </person>
    <person id="ped96" depart="138.76" type="ped_pedestrian">
        <personTrip from="-826049217#0" to="89638687#2" modes="public"/>
    </person>
    <person id="ped97" depart="140.21" type="ped_pedestrian">
        <personTrip from="155883037#0" to="860727763" modes="public"/>
    </person>
    <person id="ped98" depart="141.66" type="ped_pedestrian">
        <personTrip from="275865256#1" to="-161318989#1" modes="public"/>
    </person>
    <person id="ped99" depart="143.10" type="ped_pedestrian">
        <personTrip from="99979624" to="860586797" modes="public"/>
    </person>
    <person id="ped100" depart="144.55" type="ped_pedestrian">
        <personTrip from="94494930#2" to="89638687#6" modes="public"/>
    </person>
    <person id="ped101" depart="145.99" type="ped_pedestrian">
        <personTrip from="860727750#1" to="-422206243#1" modes="public"/>
    </person>
    <person id="ped102" depart="147.44" type="ped_pedestrian">
        <personTrip from="191934378#6" to="-524568471#3" modes="public"/>
    </person>
    <person id="ped103" depart="148.88" type="ped_pedestrian">
        <personTrip from="100102162#1" to="-165486156#0" modes="public"/>
    </person>
    <person id="ped104" depart="150.33" type="ped_pedestrian">
        <personTrip from="-99978920#0" to="99978920#0" modes="public"/>
    </person>
    <person id="ped105" depart="151.77" type="ped_pedestrian">
        <personTrip from="-854780595#7" to="854854169#3" modes="public"/>
    </person>
    <person id="ped106" depart="153.22" type="ped_pedestrian">
        <personTrip from="161318989#7" to="146496700#4" modes="public"/>
    </person>
    <person id="ped107" depart="154.66" type="ped_pedestrian">
        <personTrip from="91997032#1" to="99979561" modes="public"/>
    </person>
    <person id="ped108" depart="156.11" type="ped_pedestrian">
        <personTrip from="27811151#3" to="792235766#0" modes="public"/>
    </person>
    <person id="ped109" depart="157.56" type="ped_pedestrian">
        <personTrip from="-324480439" to="-89637243#0" modes="public"/>
    </person>
    <person id="ped110" depart="159.00" type="ped_pedestrian">
        <personTrip from="94494930#2" to="323623757#1" modes="public"/>
    </person>
    <person id="ped111" depart="160.45" type="ped_pedestrian">
        <personTrip from="256938736#5" to="854780595#8" modes="public"/>
    </person>
    <person id="ped112" depart="161.89" type="ped_pedestrian">
        <personTrip from="-165397335#2" to="324477595#2" modes="public"/>
    </person>
    <person id="ped113" depart="163.34" type="ped_pedestrian">
        <personTrip from="205422092#0" to="860727757" modes="public"/>
    </person>
    <person id="ped114" depart="164.78" type="ped_pedestrian">
        <personTrip from="-335224532" to="94327820#1" modes="public"/>
    </person>
    <person id="ped115" depart="166.23" type="ped_pedestrian">
        <personTrip from="-205422093#1" to="-425461020#4" modes="public"/>
    </person>
    <person id="ped116" depart="167.67" type="ped_pedestrian">
        <personTrip from="390566342" to="61862486#1" modes="public"/>
    </person>
    <person id="ped117" depart="169.12" type="ped_pedestrian">
        <personTrip from="-74658012#0" to="-272565361" modes="public"/>
    </person>
    <person id="ped118" depart="170.56" type="ped_pedestrian">
        <personTrip from="89637244#0" to="-775888149#0" modes="public"/>
    </person>
    <person id="ped119" depart="172.01" type="ped_pedestrian">
        <personTrip from="390566340#2" to="425461020#3" modes="public"/>
    </person>
    <person id="ped120" depart="173.46" type="ped_pedestrian">
        <personTrip from="146496700#0" to="324477595#2" modes="public"/>
    </person>
    <person id="ped121" depart="174.90" type="ped_pedestrian">
        <personTrip from="224361836#1" to="91205109#1" modes="public"/>
    </person>
    <person id="ped122" depart="176.35" type="ped_pedestrian">
        <personTrip from="-444086385#2" to="792235765#3" modes="public"/>
    </person>
    <person id="ped123" depart="177.79" type="ped_pedestrian">
        <personTrip from="-74658302#1" to="100101975#1" modes="public"/>
    </person>
    <person id="ped124" depart="179.24" type="ped_pedestrian">
        <personTrip from="61862480#5" to="-89637244#2" modes="public"/>
    </person>
    <person id="ped125" depart="180.68" type="ped_pedestrian">
        <personTrip from="-89637250#4" to="854780596#3" modes="public"/>
    </person>
    <person id="ped126" depart="182.13" type="ped_pedestrian">
        <personTrip from="-192946035#3" to="165397335#0" modes="public"/>
    </person>
    <person id="ped127" depart="183.57" type="ped_pedestrian">
        <personTrip from="99979616" to="99979563#0" modes="public"/>
    </person>
    <person id="ped128" depart="185.02" type="ped_pedestrian">
        <personTrip from="-192946036#0" to="-524568471#2" modes="public"/>
    </person>
    <person id="ped129" depart="186.46" type="ped_pedestrian">
        <personTrip from="-854780595#7" to="89642715" modes="public"/>
    </person>
    <person id="ped130" depart="187.91" type="ped_pedestrian">
        <personTrip from="89637182#0" to="89637135#0" modes="public"/>
    </person>
    <person id="ped131" depart="189.36" type="ped_pedestrian">
        <personTrip from="-96779085#1" to="-336014580" modes="public"/>
    </person>
    <person id="ped132" depart="190.80" type="ped_pedestrian">
        <personTrip from="860586089#1" to="775717148#3" modes="public"/>
    </person>
    <person id="ped133" depart="192.25" type="ped_pedestrian">
        <personTrip from="423517904#0" to="99979310#0" modes="public"/>
    </person>
    <person id="ped134" depart="193.69" type="ped_pedestrian">
        <personTrip from="524568467#1" to="-100102121" modes="public"/>
    </person>
    <person id="ped135" depart="195.14" type="ped_pedestrian">
        <personTrip from="857726123#4" to="-89637244#1" modes="public"/>
    </person>
    <person id="ped136" depart="196.58" type="ped_pedestrian">
        <personTrip from="61814416#1" to="91364633#3" modes="public"/>
    </person>
    <person id="ped137" depart="198.03" type="ped_pedestrian">
        <personTrip from="-321958948" to="-265041497" modes="public"/>
    </person>
    <person id="ped138" depart="199.47" type="ped_pedestrian">
        <personTrip from="-256520637#2" to="27811151#0" modes="public"/>
    </person>
    <person id="ped139" depart="200.92" type="ped_pedestrian">
        <personTrip from="-854854177" to="422206263#3" modes="public"/>
    </person>
    <person id="ped140" depart="202.37" type="ped_pedestrian">
        <personTrip from="792235765#4" to="-444086385#1" modes="public"/>
    </person>
    <person id="ped141" depart="203.81" type="ped_pedestrian">
        <personTrip from="442891976#2" to="-854780595#5" modes="public"/>
    </person>
    <person id="ped142" depart="205.26" type="ped_pedestrian">
        <personTrip from="192109155#1" to="89637250#1" modes="public"/>
    </person>
    <person id="ped143" depart="206.70" type="ped_pedestrian">
        <personTrip from="860727748" to="-223957413" modes="public"/>
    </person>
    <person id="ped144" depart="208.15" type="ped_pedestrian">
        <personTrip from="146496700#5" to="-857726123#1" modes="public"/>
    </person>
    <person id="ped145" depart="209.59" type="ped_pedestrian">
        <personTrip from="-100101940" to="854854161" modes="public"/>
    </person>
    <person id="ped146" depart="211.04" type="ped_pedestrian">
        <personTrip from="442915349" to="-854780595#0" modes="public"/>
    </person>
    <person id="ped147" depart="212.48" type="ped_pedestrian">
        <personTrip from="854780594#5" to="275865263" modes="public"/>
    </person>
    <person id="ped148" depart="213.93" type="ped_pedestrian">
        <personTrip from="147399827#2" to="-100102162#1" modes="public"/>
    </person>
    <person id="ped149" depart="215.37" type="ped_pedestrian">
        <personTrip from="-192946582#0" to="89637182#4" modes="public"/>
    </person>
    <person id="ped150" depart="216.82" type="ped_pedestrian">
        <personTrip from="89637250#0" to="265042795" modes="public"/>
    </person>
    <person id="ped151" depart="218.27" type="ped_pedestrian">
        <personTrip from="860586089#2" to="324477595#0" modes="public"/>
    </person>
    <person id="ped152" depart="219.71" type="ped_pedestrian">
        <personTrip from="-324477594#1" to="-318197093" modes="public"/>
    </person>
    <person id="ped153" depart="221.16" type="ped_pedestrian">
        <personTrip from="-89637246" to="89637245#5" modes="public"/>
    </person>
    <person id="ped154" depart="222.60" type="ped_pedestrian">
        <personTrip from="854857368#5" to="860727763" modes="public"/>
    </person>
    <person id="ped155" depart="224.05" type="ped_pedestrian">
        <personTrip from="89637245#5" to="-524568465" modes="public"/>
    </person>
    <person id="ped156" depart="225.49" type="ped_pedestrian">
        <personTrip from="-779232503#2" to="-233257376" modes="public"/>
    </person>
    <person id="ped157" depart="226.94" type="ped_pedestrian">
        <personTrip from="854854168#1" to="89637182#5" modes="public"/>
    </person>
    <person id="ped158" depart="228.38" type="ped_pedestrian">
        <personTrip from="106972916#1" to="425461020#4" modes="public"/>
    </person>
    <person id="ped159" depart="229.83" type="ped_pedestrian">
        <personTrip from="-324480439" to="89638689#1" modes="public"/>
    </person>
    <person id="ped160" depart="231.27" type="ped_pedestrian">
        <personTrip from="860727767" to="96779087" modes="public"/>
    </person>
    <person id="ped161" depart="232.72" type="ped_pedestrian">
        <personTrip from="857492843#3" to="89637182#1" modes="public"/>
    </person>
    <person id="ped162" depart="234.17" type="ped_pedestrian">
        <personTrip from="-146496699#2" to="854780594#12" modes="public"/>
    </person>
    <person id="ped163" depart="235.61" type="ped_pedestrian">
        <personTrip from="-89638688#1" to="89638689#2" modes="public"/>
    </person>
    <person id="ped164" depart="237.06" type="ped_pedestrian">
        <personTrip from="854857376#0" to="860727767" modes="public"/>
    </person>
    <person id="ped165" depart="238.50" type="ped_pedestrian">
        <personTrip from="857492843#3" to="-854780595#9" modes="public"/>
    </person>
    <person id="ped166" depart="239.95" type="ped_pedestrian">
        <personTrip from="854857366#0" to="-256938735#0" modes="public"/>
    </person>
    <person id="ped167" depart="241.39" type="ped_pedestrian">
        <personTrip from="863066496" to="860727761#1" modes="public"/>
    </person>
    <person id="ped168" depart="242.84" type="ped_pedestrian">
        <personTrip from="-61862480#2" to="857726123#3" modes="public"/>
    </person>
    <person id="ped169" depart="244.28" type="ped_pedestrian">
        <personTrip from="165397335#2" to="-89637245#2" modes="public"/>
    </person>
    <person id="ped170" depart="245.73" type="ped_pedestrian">
        <personTrip from="854857368#4" to="-61862487#0" modes="public"/>
    </person>
    <person id="ped171" depart="247.17" type="ped_pedestrian">
        <personTrip from="-146496699#1" to="-442891976#1" modes="public"/>
    </person>
    <person id="ped172" depart="248.62" type="ped_pedestrian">
        <personTrip from="-89638687#3" to="860727767" modes="public"/>
    </person>
    <person id="ped173" depart="250.07" type="ped_pedestrian">
        <personTrip from="94494930#0" to="-857726123#4" modes="public"/>
    </person>
    <person id="ped174" depart="251.51" type="ped_pedestrian">
        <personTrip from="444086376#4" to="100102121" modes="public"/>
    </person>
    <person id="ped175" depart="252.96" type="ped_pedestrian">
        <personTrip from="99978914#1" to="256938735#4" modes="public"/>
    </person>
    <person id="ped176" depart="254.40" type="ped_pedestrian">
        <personTrip from="91364633#3" to="-265041450#1" modes="public"/>
    </person>
    <person id="ped177" depart="255.85" type="ped_pedestrian">
        <personTrip from="949327405" to="-423517904#2" modes="public"/>
    </person>
    <person id="ped178" depart="257.29" type="ped_pedestrian">
        <personTrip from="94327820#3" to="-854780595#7" modes="public"/>
    </person>
    <person id="ped179" depart="258.74" type="ped_pedestrian">
        <personTrip from="-256938735#0" to="155882945" modes="public"/>
    </person>
    <person id="ped180" depart="260.18" type="ped_pedestrian">
        <personTrip from="813075001" to="-89637250#1" modes="public"/>
    </person>
    <person id="ped181" depart="261.63" type="ped_pedestrian">
        <personTrip from="423287196#0" to="223942131#2" modes="public"/>
    </person>
    <person id="ped182" depart="263.07" type="ped_pedestrian">
        <personTrip from="-99979574#0" to="323623754" modes="public"/>
    </person>
    <person id="ped183" depart="264.52" type="ped_pedestrian">
        <personTrip from="-854780594#11" to="792235761#1" modes="public"/>
    </person>
    <person id="ped184" depart="265.97" type="ped_pedestrian">
        <personTrip from="-100101939#0" to="89638687#5" modes="public"/>
    </person>
    <person id="ped185" depart="267.41" type="ped_pedestrian">
        <personTrip from="256938735#6" to="792235766#1" modes="public"/>
    </person>
    <person id="ped186" depart="268.86" type="ped_pedestrian">
        <personTrip from="854780594#6" to="61862480#4" modes="public"/>
    </person>
    <person id="ped187" depart="270.30" type="ped_pedestrian">
        <personTrip from="-94494930#3" to="-192946035#0" modes="public"/>
    </person>
    <person id="ped188" depart="271.75" type="ped_pedestrian">
        <personTrip from="61814416#2" to="-89638687#5" modes="public"/>
    </person>
    <person id="ped189" depart="273.19" type="ped_pedestrian">
        <personTrip from="-89637250#2" to="860727750#0" modes="public"/>
    </person>
    <person id="ped190" depart="274.64" type="ped_pedestrian">
        <personTrip from="792235766#2" to="-89637244#2" modes="public"/>
    </person>
    <person id="ped191" depart="276.08" type="ped_pedestrian">
        <personTrip from="-89637249#0" to="141166589#0" modes="public"/>
    </person>
    <person id="ped192" depart="277.53" type="ped_pedestrian">
        <personTrip from="100102162#2" to="-89637182#9" modes="public"/>
    </person>
    <person id="ped193" depart="278.97" type="ped_pedestrian">
        <personTrip from="-318197093" to="146496700#1" modes="public"/>
    </person>
    <person id="ped194" depart="280.42" type="ped_pedestrian">
        <personTrip from="91364877#1" to="61862488#0" modes="public"/>
    </person>
    <person id="ped195" depart="281.87" type="ped_pedestrian">
        <personTrip from="89637249#2" to="423529536" modes="public"/>
    </person>
    <person id="ped196" depart="283.31" type="ped_pedestrian">
        <personTrip from="-89637244#3" to="272565360" modes="public"/>
    </person>
    <person id="ped197" depart="284.76" type="ped_pedestrian">