<?xml version="1.0" encoding="UTF-8"?>

<!-- generated on 2021-07-12 16:46:00 by Eclipse SUMO duarouter Version 1.9.2
<configuration xmlns:xsi="http://www.w3.org/2001/XMLSchema-instance" xsi:noNamespaceSchemaLocation="http://sumo.dlr.de/xsd/duarouterConfiguration.xsd">

    <input>
        <net-file value="osm.net.xml"/>
        <route-files value="osm22.passenger.trips.xml"/>
    </input>

    <output>
        <output-file value="osm22.passenger.trips.xml.tmp"/>
        <write-trips value="true"/>
    </output>

    <time>
        <begin value="0"/>
        <end value="3600"/>
    </time>

    <report>
        <no-warnings value="true"/>
        <ignore-errors value="true"/>
        <no-step-log value="true"/>
    </report>

</configuration>
-->

<routes xmlns:xsi="http://www.w3.org/2001/XMLSchema-instance" xsi:noNamespaceSchemaLocation="http://sumo.dlr.de/xsd/routes_file.xsd">
    <vType id="veh_passenger" vClass="passenger"/>
    <trip id="veh0" type="veh_passenger" depart="0.00" departLane="best" departSpeed="max" from="321792153" to="-141166607#1"/>
    <trip id="veh1" type="veh_passenger" depart="1.45" departLane="best" departSpeed="max" from="-61814416#2" to="-425461020#3"/>
    <trip id="veh3" type="veh_passenger" depart="4.34" departLane="best" from="89637182#6" to="-192946582#1"/>
    <trip id="veh4" type="veh_passenger" depart="5.78" departLane="best" from="-96779085#0" to="-146496699#3"/>
    <trip id="veh5" type="veh_passenger" depart="7.23" departLane="best" from="-422206263#0" to="159695206#1"/>
    <trip id="veh6" type="veh_passenger" depart="8.67" departLane="best" from="-146496699#0" to="-422206263#3"/>
    <trip id="veh7" type="veh_passenger" depart="10.12" departLane="best" from="323621871" to="166261566#3"/>
    <trip id="veh8" type="veh_passenger" depart="11.56" departLane="best" from="-422206263#2" to="256938735#3"/>
    <trip id="veh9" type="veh_passenger" depart="13.01" departLane="best" from="61862488#1" to="-100101949"/>
    <trip id="veh10" type="veh_passenger" depart="14.45" departLane="best" from="61862487#0" to="422206263#0"/>
    <trip id="veh11" type="veh_passenger" depart="15.90" departLane="best" from="-89637244#2" to="-321792153"/>
    <trip id="veh12" type="veh_passenger" depart="17.35" departLane="best" from="91364633#3" to="-89637244#4"/>
    <trip id="veh13" type="veh_passenger" depart="18.79" departLane="best" from="-166261566#1" to="-223942131#0"/>
    <trip id="veh15" type="veh_passenger" depart="21.68" departLane="best" from="61862487#1" to="432981001"/>
    <trip id="veh16" type="veh_passenger" depart="23.13" departLane="best" from="161318989#7" to="949327406#1"/>
    <trip id="veh17" type="veh_passenger" depart="24.57" departLane="best" from="-89638688#1" to="205422093#0"/>
    <trip id="veh18" type="veh_passenger" depart="26.02" departLane="best" from="74658012#2" to="27811151#2"/>
    <trip id="veh19" type="veh_passenger" depart="27.46" departLane="best" departSpeed="max" from="779232503#0" to="233258650"/>
    <trip id="veh20" type="veh_passenger" depart="28.91" departLane="best" from="423287196#3" to="-147399827#5"/>
    <trip id="veh21" type="veh_passenger" depart="30.35" departLane="best" from="-423287196#4" to="-74658302#0"/>
    <trip id="veh22" type="veh_passenger" depart="31.80" departLane="best" from="-165397335#0" to="-442891976#0"/>
    <trip id="veh23" type="veh_passenger" depart="33.25" departLane="best" from="-205422092#1" to="-61862487#0"/>
    <trip id="veh24" type="veh_passenger" depart="34.69" departLane="best" from="318198216#2" to="-89638687#0"/>
    <trip id="veh25" type="veh_passenger" depart="36.14" departLane="best" from="-89638687#0" to="-423517904#2"/>
    <trip id="veh26" type="veh_passenger" depart="37.58" departLane="best" from="322659428#3" to="265042795"/>
    <trip id="veh27" type="veh_passenger" depart="39.03" departLane="best" departSpeed="max" from="-318345279" to="432981001"/>
    <trip id="veh28" type="veh_passenger" depart="40.47" departLane="best" from="-318198193" to="-89638689#1"/>
    <trip id="veh29" type="veh_passenger" depart="41.92" departLane="best" from="99978914#2" to="322659427#0"/>
    <trip id="veh30" type="veh_passenger" depart="43.36" departLane="best" from="74658359#2" to="61814416#1"/>
    <trip id="veh31" type="veh_passenger" depart="44.81" departLane="best" from="-423287196#5" to="-146496700#1"/>
    <trip id="veh32" type="veh_passenger" depart="46.25" departLane="best" from="-775888149#0" to="-61857817#1"/>
    <trip id="veh33" type="veh_passenger" depart="47.70" departLane="best" from="-422206222#1" to="91364877#2"/>
    <trip id="veh34" type="veh_passenger" depart="49.15" departLane="best" from="324477593" to="-91996897#0"/>
    <trip id="veh35" type="veh_passenger" depart="50.59" departLane="best" from="89637249#3" to="146496700#4"/>
    <trip id="veh36" type="veh_passenger" depart="52.04" departLane="best" from="-478976485" to="-444086376#5"/>
    <trip id="veh37" type="veh_passenger" depart="53.48" departLane="best" from="192946582#1" to="-524568471#4"/>
    <trip id="veh38" type="veh_passenger" depart="54.93" departLane="best" from="224361838" to="89637250#1"/>
    <trip id="veh39" type="veh_passenger" depart="56.37" departLane="best" from="99979574#0" to="159796724"/>
    <trip id="veh40" type="veh_passenger" depart="57.82" departLane="best" from="-165486156#5" to="-147399827#6"/>
    <trip id="veh41" type="veh_passenger" depart="59.26" departLane="best" from="-223942131#0" to="318197092#0"/>
    <trip id="veh42" type="veh_passenger" depart="60.71" departLane="best" from="61862480#0" to="100101931"/>
    <trip id="veh43" type="veh_passenger" depart="62.15" departLane="best" from="-161318989#0" to="-89638689#3"/>
    <trip id="veh44" type="veh_passenger" depart="63.60" departLane="best" from="99979559#0" to="165486154"/>
    <trip id="veh45" type="veh_passenger" depart="65.05" departLane="best" from="91997032#0" to="826049220"/>
    <trip id="veh46" type="veh_passenger" depart="66.49" departLane="best" from="-100102162#2" to="425461020#3"/>
    <trip id="veh47" type="veh_passenger" depart="67.94" departLane="best" from="390566340#1" to="165486156#6"/>
    <trip id="veh48" type="veh_passenger" depart="69.38" departLane="best" from="-524568465" to="322659427#1"/>
    <trip id="veh49" type="veh_passenger" depart="70.83" departLane="best" from="-223942131#2" to="100944613#1"/>
    <trip id="veh50" type="veh_passenger" depart="72.27" departLane="best" from="100102162#2" to="91996893#0"/>
    <trip id="veh51" type="veh_passenger" depart="73.72" departLane="best" from="826049218" to="-61814416#0"/>
    <trip id="veh52" type="veh_passenger" depart="75.16" departLane="best" from="-74658012#0" to="321958948"/>
    <trip id="veh53" type="veh_passenger" depart="76.61" departLane="best" from="256938736#5" to="-321792153"/>
    <trip id="veh54" type="veh_passenger" depart="78.06" departLane="best" from="444086385#0" to="166261566#3"/>
    <trip id="veh55" type="veh_passenger" depart="79.50" departLane="best" from="524568467#3" to="165486154"/>
    <trip id="veh56" type="veh_passenger" depart="80.95" departLane="best" from="-100101934#0" to="-89637182#4"/>
    <trip id="veh57" type="veh_passenger" depart="82.39" departLane="best" from="-141166589#0" to="89638689#4"/>
    <trip id="veh58" type="veh_passenger" depart="83.84" departLane="best" from="826049219" to="74658359#2"/>
    <trip id="veh59" type="veh_passenger" depart="85.28" departLane="best" from="-74658359#2" to="-155883037#2"/>
    <trip id="veh60" type="veh_passenger" depart="86.73" departLane="best" from="826049219" to="91364878#2"/>
    <trip id="veh61" type="veh_passenger" depart="88.17" departLane="best" departSpeed="max" from="-165486154" to="155882951#0"/>
    <trip id="veh62" type="veh_passenger" depart="89.62" departLane="best" from="-161318989#3" to="524568467#0"/>
    <trip id="veh63" type="veh_passenger" depart="91.06" departLane="best" from="444086385#3" to="-256938735#5"/>
    <trip id="veh64" type="veh_passenger" depart="92.51" departLane="best" from="146496700#1" to="205422092#1"/>
    <trip id="veh65" type="veh_passenger" depart="93.96" departLane="best" from="-478976485" to="89637182#6"/>
    <trip id="veh66" type="veh_passenger" depart="95.40" departLane="best" departSpeed="max" from="-96779085#1" to="-423529537#0"/>
    <trip id="veh67" type="veh_passenger" depart="96.85" departLane="best" departSpeed="max" from="162311606#0" to="432981001"/>
    <trip id="veh68" type="veh_passenger" depart="98.29" departLane="best" from="-324481079" to="-779232503#2"/>
    <trip id="veh69" type="veh_passenger" depart="99.74" departLane="best" from="99979557" to="323623756"/>
    <trip id="veh70" type="veh_passenger" depart="101.18" departLane="best" departSpeed="max" from="-99979561" to="161318989#5"/>
    <trip id="veh71" type="veh_passenger" depart="102.63" departLane="best" from="-223957414#1" to="-425461020#4"/>
    <trip id="veh72" type="veh_passenger" depart="104.07" departLane="best" from="-89637244#0" to="256938735#2"/>
    <trip id="veh73" type="veh_passenger" depart="105.52" departLane="best" from="-423517904#0" to="-425461020#0"/>
    <trip id="veh74" type="veh_passenger" depart="106.96" departLane="best" from="-161318989#5" to="318198216#0"/>
    <trip id="veh75" type="veh_passenger" depart="108.41" departLane="best" from="-423287196#5" to="89637284#0"/>
    <trip id="veh76" type="veh_passenger" depart="109.86" departLane="best" from="775717148#3" to="-165397335#0"/>
    <trip id="veh77" type="veh_passenger" depart="111.30" departLane="best" from="-425461020#3" to="335224532"/>
    <trip id="veh78" type="veh_passenger" depart="112.75" departLane="best" departSpeed="max" from="-422206243#2" to="-265041497"/>
    <trip id="veh79" type="veh_passenger" depart="114.19" departLane="best" from="89638687#0" to="224361836#1"/>
    <trip id="veh80" type="veh_passenger" depart="115.64" departLane="best" from="146496699#3" to="61857817#1"/>
    <trip id="veh81" type="veh_passenger" depart="117.08" departLane="best" from="61862487#1" to="-422206222#0"/>
    <trip id="veh82" type="veh_passenger" depart="118.53" departLane="best" departSpeed="max" from="-166261566#3" to="100102121"/>
    <trip id="veh83" type="veh_passenger" depart="119.97" departLane="best" departSpeed="max" from="-96779085#1" to="147399823"/>
    <trip id="veh85" type="veh_passenger" depart="122.86" departLane="best" departSpeed="max" from="96779088#0" to="-223942131#1"/>
    <trip id="veh86" type="veh_passenger" depart="124.31" departLane="best" from="-91996897#1" to="-89637245#1"/>
    <trip id="veh87" type="veh_passenger" depart="125.76" departLane="best" departSpeed="max" from="779232503#0" to="-444086376#7"/>
    <trip id="veh88" type="veh_passenger" depart="127.20" departLane="best" from="-324477593" to="146496699#0"/>
    <trip id="veh89" type="veh_passenger" depart="128.65" departLane="best" from="-96779085#0" to="-61862487#1"/>
    <trip id="veh90" type="veh_passenger" depart="130.09" departLane="best" from="-442891976#3" to="89638687#6"/>
    <trip id="veh91" type="veh_passenger" depart="131.54" departLane="best" from="100101934#0" to="826049220"/>
    <trip id="veh92" type="veh_passenger" depart="132.98" departLane="best" departSpeed="max" from="165486156#0" to="-147608333#2"/>
    <trip id="veh93" type="veh_passenger" depart="134.43" departLane="best" from="99979624" to="74658359#5"/>
    <trip id="veh94" type="veh_passenger" depart="135.87" departLane="best" from="91996893#0" to="89638689#1"/>
    <trip id="veh95" type="veh_passenger" depart="137.32" departLane="best" departSpeed="max" from="775717148#0" to="-323623752"/>
    <trip id="veh96" type="veh_passenger" depart="138.76" departLane="best" departSpeed="max" from="147399827#0" to="-423529537#0"/>
    <trip id="veh97" type="veh_passenger" depart="140.21" departLane="best" from="-91996893#0" to="-155883037#3"/>
    <trip id="veh98" type="veh_passenger" depart="141.66" departLane="best" from="-89638689#1" to="99978916#0"/>
    <trip id="veh99" type="veh_passenger" depart="143.10" departLane="best" from="-478976485" to="61857817#1"/>
    <trip id="veh100" type="veh_passenger" depart="144.55" departLane="best" from="100944613#1" to="100101934#0"/>
    <trip id="veh102" type="veh_passenger" depart="147.44" departLane="best" from="165486156#5" to="425461020#1"/>
    <trip id="veh103" type="veh_passenger" depart="148.88" departLane="best" from="-27811151#2" to="-74658302#1"/>
    <trip id="veh104" type="veh_passenger" depart="150.33" departLane="best" from="91828645#1" to="253432192#0"/>
    <trip id="veh105" type="veh_passenger" depart="151.77" departLane="best" departSpeed="max" from="162311606#0" to="444086376#6"/>
    <trip id="veh106" type="veh_passenger" depart="153.22" departLane="best" from="-155882951#1" to="256520637#1"/>
    <trip id="veh107" type="veh_passenger" depart="154.66" departLane="best" departSpeed="max" from="-318193070" to="94327820#4"/>
    <trip id="veh108" type="veh_passenger" depart="156.11" departLane="best" from="-165397335#1" to="-390566340#1"/>
    <trip id="veh110" type="veh_passenger" depart="159.00" departLane="best" from="-425461020#1" to="-256520637#1"/>
    <trip id="veh111" type="veh_passenger" depart="160.45" departLane="best" from="89637182#4" to="-444086376#5"/>
    <trip id="veh112" type="veh_passenger" depart="161.89" departLane="best" from="253432192#1" to="27811151#2"/>
    <trip id="veh113" type="veh_passenger" depart="163.34" departLane="best" departSpeed="max" from="-949327406#1" to="256520637#1"/>
    <trip id="veh114" type="veh_passenger" depart="164.78" departLane="best" departSpeed="max" from="158300787#0" to="91205109#0"/>
    <trip id="veh115" type="veh_passenger" depart="166.23" departLane="best" from="-390566340#0" to="423517904#3"/>
    <trip id="veh116" type="veh_passenger" depart="167.67" departLane="best" from="-425461020#4" to="-91996897#0"/>
    <trip id="veh117" type="veh_passenger" depart="169.12" departLane="best" departSpeed="max" from="382381407" to="-74658359#1"/>
    <trip id="veh118" type="veh_passenger" depart="170.56" departLane="best" from="-779232503#1" to="444086385#0"/>
    <trip id="veh119" type="veh_passenger" depart="172.01" departLane="best" from="-161318989#6" to="146496700#3"/>
    <trip id="veh121" type="veh_passenger" depart="174.90" departLane="best" departSpeed="max" from="-161318989#7" to="-423529537#0"/>
    <trip id="veh122" type="veh_passenger" depart="176.35" departLane="best" from="-478976485" to="89642715"/>
    <trip id="veh123" type="veh_passenger" depart="177.79" departLane="best" from="826049220" to="89637244#0"/>
    <trip id="veh124" type="veh_passenger" depart="179.24" departLane="best" from="-89638684#3" to="-322659427#0"/>
    <trip id="veh125" type="veh_passenger" depart="180.68" departLane="best" departSpeed="max" from="74658302#0" to="422848103"/>
    <trip id="veh127" type="veh_passenger" depart="183.57" departLane="best" from="323623757#1" to="-100101949"/>
    <trip id="veh128" type="veh_passenger" depart="185.02" departLane="best" from="61877416#3" to="-74658359#1"/>
    <trip id="veh129" type="veh_passenger" depart="186.46" departLane="best" from="324479874" to="91364633#2"/>
    <trip id="veh130" type="veh_passenger" depart="187.91" departLane="best" from="-256520638" to="-233257376"/>
    <trip id="veh131" type="veh_passenger" depart="189.36" departLane="best" from="-223942066#1" to="205422093#1"/>
    <trip id="veh133" type="veh_passenger" depart="192.25" departLane="best" departSpeed="max" from="425461020#0" to="-423287196#2"/>
    <trip id="veh134" type="veh_passenger" depart="193.69" departLane="best" from="318198216#0" to="-61814416#0"/>
    <trip id="veh135" type="veh_passenger" depart="195.14" departLane="best" from="147399827#1" to="89637284#0"/>
    <trip id="veh136" type="veh_passenger" depart="196.58" departLane="best" from="74658359#4" to="-205422093#1"/>
    <trip id="veh137" type="veh_passenger" depart="198.03" departLane="best" departSpeed="max" from="-96779085#1" to="-61862486#1"/>
    <trip id="veh138" type="veh_passenger" depart="199.47" departLane="best" departSpeed="max" from="-100101939#1" to="524568471#0"/>
    <trip id="veh139" type="veh_passenger" depart="200.92" departLane="best" from="318198216#3" to="-524568471#3"/>
    <trip id="veh140" type="veh_passenger" depart="202.37" departLane="best" from="442891976#1" to="205422093#0"/>
    <trip id="veh141" type="veh_passenger" depart="203.81" departLane="best" departSpeed="max" from="-96779088#2" to="-100102121"/>
    <trip id="veh142" type="veh_passenger" depart="205.26" departLane="best" departSpeed="max" from="-161318989#7" to="89637244#4"/>
    <trip id="veh143" type="veh_passenger" depart="206.70" departLane="best" from="89637245#0" to="188614447#0"/>
    <trip id="veh144" type="veh_passenger" depart="208.15" departLane="best" departSpeed="max" from="74658302#0" to="253432192#2"/>
    <trip id="veh145" type="veh_passenger" depart="209.59" departLane="best" from="-265043745" to="-256938735#4"/>
    <trip id="veh146" type="veh_passenger" depart="211.04" departLane="best" from="-74658359#3" to="89637250#2"/>
    <trip id="veh147" type="veh_passenger" depart="212.48" departLane="best" from="61862480#2" to="826049220"/>
    <trip id="veh148" type="veh_passenger" depart="213.93" departLane="best" from="89637244#1" to="-423517904#2"/>
    <trip id="veh149" type="veh_passenger" depart="215.37" departLane="best" from="-442891976#3" to="-223942189"/>
    <trip id="veh150" type="veh_passenger" depart="216.82" departLane="best" from="524568467#4" to="89637244#5"/>
    <trip id="veh151" type="veh_passenger" depart="218.27" departLane="best" from="-94327820#0" to="318055423#0"/>
    <trip id="veh152" type="veh_passenger" depart="219.71" departLane="best" from="-27811151#2" to="89638689#4"/>
    <trip id="veh153" type="veh_passenger" depart="221.16" departLane="best" departSpeed="max" from="779232503#0" to="96779085#1"/>
    <trip id="veh154" type="veh_passenger" depart="222.60" departLane="best" from="61877415#0" to="89637244#2"/>
    <trip id="veh155" type="veh_passenger" depart="224.05" departLane="best" from="-141166607#1" to="442891976#1"/>
    <trip id="veh156" type="veh_passenger" depart="225.49" departLane="best" from="-89637182#7" to="89642715"/>
    <trip id="veh157" type="veh_passenger" depart="226.94" departLane="best" from="61862480#6" to="89545382#1"/>
    <trip id="veh158" type="veh_passenger" depart="228.38" departLane="best" from="61877415#0" to="-61857817#0"/>
    <trip id="veh159" type="veh_passenger" depart="229.83" departLane="best" from="61814416#1" to="-223957414#0"/>
    <trip id="veh160" type="veh_passenger" depart="231.27" departLane="best" from="-422206263#3" to="61879252#2"/>
    <trip id="veh161" type="veh_passenger" depart="232.72" departLane="best" from="106972919" to="-775888149#0"/>
    <trip id="veh162" type="veh_passenger" depart="234.17" departLane="best" from="61862480#2" to="-432528029"/>
    <trip id="veh163" type="veh_passenger" depart="235.61" departLane="best" from="-141166607#0" to="-422206222#2"/>
    <trip id="veh164" type="veh_passenger" depart="237.06" departLane="best" from="-89637182#2" to="89545382#1"/>
    <trip id="veh165" type="veh_passenger" depart="238.50" departLane="best" from="91828640#1" to="-61862487#1"/>
    <trip id="veh166" type="veh_passenger" depart="239.95" departLane="best" departSpeed="max" from="321792153" to="-94327820#3"/>
    <trip id="veh167" type="veh_passenger" depart="241.39" departLane="best" from="949327407" to="165486156#6"/>
    <trip id="veh168" type="veh_passenger" depart="242.84" departLane="best" from="89638687#4" to="-233257376"/>
    <trip id="veh169" type="veh_passenger" depart="244.28" departLane="best" from="91996897#1" to="-324479874"/>
    <trip id="veh170" type="veh_passenger" depart="245.73" departLane="best" from="91364878#0" to="-61857815"/>
    <trip id="veh171" type="veh_passenger" depart="247.17" departLane="best" from="-223942098" to="100944613#0"/>
    <trip id="veh172" type="veh_passenger" depart="248.62" departLane="best" from="256938736#2" to="161318989#0"/>
    <trip id="veh173" type="veh_passenger" depart="250.07" departLane="best" departSpeed="max" from="-89642715" to="233258650"/>
    <trip id="veh174" type="veh_passenger" depart="251.51" departLane="best" from="-444086376#4" to="423287196#3"/>
    <trip id="veh175" type="veh_passenger" depart="252.96" departLane="best" from="-100101934#1" to="89638688#1"/>
    <trip id="veh176" type="veh_passenger" depart="254.40" departLane="best" from="162311603" to="425461020#2"/>
    <trip id="veh177" type="veh_passenger" depart="255.85" departLane="best" from="442891976#1" to="336014580"/>
    <trip id="veh178" type="veh_passenger" depart="257.29" departLane="best" from="-89637284#1" to="-161318989#6"/>
    <trip id="veh179" type="veh_passenger" depart="258.74" departLane="best" from="324479874" to="-89637243#0"/>
    <trip id="veh180" type="veh_passenger" depart="260.18" departLane="best" departSpeed="max" from="-74658359#5" to="779232503#1"/>
    <trip id="veh181" type="veh_passenger" depart="261.63" departLane="best" departSpeed="max" from="425461020#0" to="-74658359#1"/>
    <trip id="veh182" type="veh_passenger" depart="263.07" departLane="best" from="-74658359#4" to="-96779087"/>
    <trip id="veh183" type="veh_passenger" depart="264.52" departLane="best" from="-91996897#1" to="-74658302#1"/>
    <trip id="veh184" type="veh_passenger" depart="265.97" departLane="best" from="-233257351#1" to="-99979624"/>
    <trip id="veh185" type="veh_passenger" depart="267.41" departLane="best" from="89638687#5" to="390566340#0"/>
    <trip id="veh186" type="veh_passenger" depart="268.86" departLane="best" from="89637244#4" to="27811140"/>
    <trip id="veh187" type="veh_passenger" depart="270.30" departLane="best" from="-74658012#2" to="192946582#1"/>
    <trip id="veh188" type="veh_passenger" depart="271.75" departLane="best" from="-100101934#0" to="-74658012#1"/>
    <trip id="veh189" type="veh_passenger" depart="273.19" departLane="best" from="-99978914#2" to="253432192#0"/>
    <trip id="veh190" type="veh_passenger" depart="274.64" departLane="best" from="323623757#1" to="146496701"/>
    <trip id="veh191" type="veh_passenger" depart="276.08" departLane="best" from="100101931" to="-423529537#0"/>
    <trip id="veh192" type="veh_passenger" depart="277.53" departLane="best" from="146496699#3" to="89637250#4"/>
    <trip id="veh193" type="veh_passenger" depart="278.97" departLane="best" from="61862480#2" to="-323625321"/>
    <trip id="veh194" type="veh_passenger" depart="280.42" departLane="best" departSpeed="max" from="-165486154" to="161318989#3"/>
    <trip id="veh195" type="veh_passenger" depart="281.87" departLane="best" from="318198193" to="-89637244#3"/>
    <trip id="veh196" type="veh_passenger" depart="283.31" departLane="best" from="61879252#0" to="444086385#0"/>
    <trip id="veh197" type="veh_passenger" depart="284.76" departLane="best" departSpeed="max" from="382381407" to="-425461020#4"/>
    <trip id="veh198" type="veh_passenger" depart="286.20" departLane="best" from="-324480077" to="-141166607#1"/>
    <trip id="veh199" type="veh_passenger" depart="287.65" departLane="best" from="-442418469#2" to="147399827#4"/>
    <trip id="veh200" type="veh_passenger" depart="289.09" departLane="best" departSpeed="max" from="775717148#0" to="-165397335#2"/>
    <trip id="veh201" type="veh_passenger" depart="290.54" departLane="best" departSpeed="max" from="-94494930#3" to="318198193"/>
    <trip id="veh202" type="veh_passenger" depart="291.98" departLane="best" from="-324477595#2" to="422206243#2"/>
    <trip id="veh203" type="veh_passenger" depart="293.43" departLane="best" from="147399827#5" to="-444086376#3"/>
    <trip id="veh204" type="veh_passenger" depart="294.87" departLane="best" from="324477594#0" to="-100101949"/>
    <trip id="veh205" type="veh_passenger" depart="296.32" departLane="best" departSpeed="max" from="444086376#0" to="524568467#4"/>
    <trip id="veh206" type="veh_passenger" depart="297.77" departLane="best" from="-223942066#1" to="100101939#1"/>
    <trip id="veh207" type="veh_passenger" depart="299.21" departLane="best" from="-322659428#0" to="91997032#0"/>
    <trip id="veh208" type="veh_passenger" depart="300.66" departLane="best" departSpeed="max" from="158300787#0" to="-147608333#2"/>
    <trip id="veh209" type="veh_passenger" depart="302.10" departLane="best" from="-442891976#3" to="779232503#1"/>
    <trip id="veh210" type="veh_passenger" depart="303.55" departLane="best" from="100944617" to="61862487#1"/>
    <trip id="veh211" type="veh_passenger" depart="304.99" departLane="best" from="335224532" to="99979310#0"/>
    <trip id="veh213" type="veh_passenger" depart="307.88" departLane="best" from="89637182#6" to="27811140"/>
    <trip id="veh214" type="veh_passenger" depart="309.33" departLane="best" departSpeed="max" from="425461020#0" to="159695206#1"/>
    <trip id="veh215" type="veh_passenger" depart="310.77" departLane="best" departSpeed="max" from="74658302#0" to="192946582#1"/>
    <trip id="veh216" type="veh_passenger" depart="312.22" departLane="best" from="89637243#1" to="444086376#3"/>
    <trip id="veh217" type="veh_passenger" depart="313.67" departLane="best" from="146496700#0" to="-524568471#1"/>
    <trip id="veh218" type="veh_passenger" depart="315.11" departLane="best" from="444086385#3" to="162311603"/>
    <trip id="veh219" type="veh_passenger" depart="316.56" departLane="best" from="27811151#2" to="-61862480#5"/>
    <trip id="veh220" type="veh_passenger" depart="318.00" departLane="best" departSpeed="max" from="-161318989#7" to="-74658012#0"/>
    <trip id="veh221" type="veh_passenger" depart="319.45" departLane="best" from="-524568471#4" to="-89637135#1"/>
    <trip id="veh222" type="veh_passenger" depart="320.89" departLane="best" departSpeed="max" from="162311606#0" to="-272565360"/>
    <trip id="veh223" type="veh_passenger" depart="322.34" departLane="best" from="-423517904#1" to="422206243#2"/>
    <trip id="veh224" type="veh_passenger" depart="323.78" departLane="best" from="423287196#5" to="-161318989#2"/>
    <trip id="veh225" type="veh_passenger" depart="325.23" departLane="best" from="-94327820#3" to="166261566#3"/>
    <trip id="veh226" type="veh_passenger" depart="326.68" departLane="best" departSpeed="max" from="-94494930#3" to="-423287196#5"/>
    <trip id="veh227" type="veh_passenger" depart="328.12" departLane="best" departSpeed="max" from="-949327406#1" to="89637284#0"/>
    <trip id="veh228" type="veh_passenger" depart="329.57" departLane="best" from="224361836#1" to="422206243#2"/>
    <trip id="veh229" type="veh_passenger" depart="331.01" departLane="best" from="775717148#2" to="524568467#2"/>
    <trip id="veh230" type="veh_passenger" depart="332.46" departLane="best" from="-89638689#2" to="-100101949"/>
    <trip id="veh231" type="veh_passenger" depart="333.90" departLane="best" from="-89637249#0" to="444086385#2"/>
    <trip id="veh232" type="veh_passenger" depart="335.35" departLane="best" departSpeed="max" from="775717148#0" to="91996893#0"/>
    <trip id="veh233" type="veh_passenger" depart="336.79" departLane="best" departSpeed="max" from="-949327406#1" to="444086376#5"/>
    <trip id="veh235" type="veh_passenger" depart="339.68" departLane="best" from="-422206263#2" to="-425461020#0"/>
    <trip id="veh236" type="veh_passenger" depart="341.13" departLane="best" departSpeed="max" from="-99979556#1" to="-146496699#2"/>
    <trip id="veh237" type="veh_passenger" depart="342.58" departLane="best" from="-89637243#0" to="390566340#1"/>
    <trip id="veh238" type="veh_passenger" depart="344.02" departLane="best" departSpeed="max" from="-91996897#2" to="-323621871"/>
    <trip id="veh239" type="veh_passenger" depart="345.47" departLane="best" from="141166607#2" to="-256938735#4"/>
    <trip id="veh240" type="veh_passenger" depart="346.91" departLane="best" departSpeed="max" from="272565360" to="-146496699#0"/>
    <trip id="veh241" type="veh_passenger" depart="348.36" departLane="best" from="-91364877#2" to="223942192"/>
    <trip id="veh242" type="veh_passenger" depart="349.80" departLane="best" from="-146496699#1" to="322659428#0"/>
    <trip id="veh243" type="veh_passenger" depart="351.25" departLane="best" from="-256938735#1" to="146496700#5"/>
    <trip id="veh244" type="veh_passenger" depart="352.69" departLane="best" from="-147399827#6" to="-89638689#1"/>
    <trip id="veh245" type="veh_passenger" depart="354.14" departLane="best" from="-422206222#2" to="-89637182#7"/>
    <trip id="veh246" type="veh_passenger" depart="355.58" departLane="best" from="444086376#7" to="-89638689#1"/>
    <trip id="veh247" type="veh_passenger" depart="357.03" departLane="best" from="444086376#1" to="74658359#2"/>
    <trip id="veh248" type="veh_passenger" depart="358.48" departLane="best" from="-444086376#2" to="-165486156#5"/>
    <trip id="veh249" type="veh_passenger" depart="359.92" departLane="best" from="-141166589#0" to="166261566#3"/>
    <trip id="veh250" type="veh_passenger" depart="361.37" departLane="best" from="99979624" to="-89637250#0"/>
    <trip id="veh251" type="veh_passenger" depart="362.81" departLane="best" from="323621871" to="61857815"/>
    <trip id="veh252" type="veh_passenger" depart="364.26" departLane="best" from="323623752" to="444086385#2"/>
    <trip id="veh253" type="veh_passenger" depart="365.70" departLane="best" from="89638689#2" to="-422206263#3"/>
    <trip id="veh254" type="veh_passenger" depart="367.15" departLane="best" from="-141166589#1" to="-321792153"/>
    <trip id="veh255" type="veh_passenger" depart="368.59" departLane="best" from="-233257351#0" to="335224532"/>
    <trip id="veh256" type="veh_passenger" depart="370.04" departLane="best" from="205422092#2" to="-425461020#0"/>